<?xml version="1.0" encoding="UTF-8"?>

<!-- generated on 2024-10-22 16:11:31 by Eclipse SUMO duarouter Version 1.15.0
<configuration xmlns:xsi="http://www.w3.org/2001/XMLSchema-instance" xsi:noNamespaceSchemaLocation="http://sumo.dlr.de/xsd/duarouterConfiguration.xsd">

    <input>
        <net-file value="grid.net.xml"/>
        <route-files value="flows.flow.row.xml"/>
    </input>

    <output>
        <output-file value="grid.rou.xml"/>
    </output>

</configuration>
-->

<routes xmlns:xsi="http://www.w3.org/2001/XMLSchema-instance" xsi:noNamespaceSchemaLocation="http://sumo.dlr.de/xsd/routes_file.xsd">
    <vehicle id="0.0" depart="0.00">
        <route edges="left1A1 A1B1 B1C1 C1D1 D1D0 D0right0"/>
    </vehicle>
    <vehicle id="1.0" depart="0.00">
        <route edges="right1D1 D1C1 C1B1 B1A1 A1A0 A0left0"/>
    </vehicle>
    <vehicle id="10.0" depart="0.00">
        <route edges="bottom1B0 B0C0 C0D0 D0D1 D1right1"/>
    </vehicle>
    <vehicle id="11.0" depart="0.00">
        <route edges="bottom2C0 C0C1 C1B1 B1A1 A1left1"/>
    </vehicle>
    <vehicle id="12.0" depart="0.00">
        <route edges="top1B1 B1C1 C1C0 C0bottom2"/>
    </vehicle>
    <vehicle id="13.0" depart="0.00">
        <route edges="top2C1 C1B1 B1B0 B0bottom1"/>
    </vehicle>
    <vehicle id="14.0" depart="0.00">
        <route edges="bottom2C0 C0B0 B0B1 B1top1"/>
    </vehicle>
    <vehicle id="15.0" depart="0.00">
        <route edges="bottom1B0 B0C0 C0C1 C1top2"/>
    </vehicle>
    <vehicle id="2.0" depart="0.00">
        <route edges="top0A1 A1B1 B1C1 C1D1 D1D0 D0bottom3"/>
    </vehicle>
    <vehicle id="3.0" depart="0.00">
        <route edges="top3D1 D1C1 C1B1 B1B0 B0A0 A0bottom0"/>
    </vehicle>
    <vehicle id="4.0" depart="0.00">
        <route edges="right0D0 D0C0 C0B0 B0A0 A0A1 A1left1"/>
    </vehicle>
    <vehicle id="5.0" depart="0.00">
        <route edges="left0A0 A0B0 B0C0 C0D0 D0D1 D1right1"/>
    </vehicle>
    <vehicle id="6.0" depart="0.00">
        <route edges="bottom3D0 D0C0 C0B0 B0A0 A0A1 A1top0"/>
    </vehicle>
    <vehicle id="7.0" depart="0.00">
        <route edges="bottom0A0 A0B0 B0C0 C0C1 C1D1 D1top3"/>
    </vehicle>
    <vehicle id="8.0" depart="0.00">
        <route edges="top1B1 B1B0 B0C0 C0D0 D0right0"/>
    </vehicle>
    <vehicle id="9.0" depart="0.00">
        <route edges="top2C1 C1B1 B1A1 A1A0 A0left0"/>
    </vehicle>
    <vehicle id="0.1" depart="10.00">
        <route edges="left1A1 A1B1 B1C1 C1D1 D1D0 D0right0"/>
    </vehicle>
    <vehicle id="1.1" depart="10.00">
        <route edges="right1D1 D1C1 C1B1 B1A1 A1A0 A0left0"/>
    </vehicle>
    <vehicle id="2.1" depart="10.00">
        <route edges="top0A1 A1B1 B1C1 C1D1 D1D0 D0bottom3"/>
    </vehicle>
    <vehicle id="3.1" depart="10.00">
        <route edges="top3D1 D1C1 C1B1 B1B0 B0A0 A0bottom0"/>
    </vehicle>
    <vehicle id="4.1" depart="15.00">
        <route edges="right0D0 D0C0 C0B0 B0A0 A0A1 A1left1"/>
    </vehicle>
    <vehicle id="5.1" depart="15.00">
        <route edges="left0A0 A0B0 B0C0 C0D0 D0D1 D1right1"/>
    </vehicle>
    <vehicle id="6.1" depart="15.00">
        <route edges="bottom3D0 D0C0 C0B0 B0A0 A0A1 A1top0"/>
    </vehicle>
    <vehicle id="7.1" depart="15.00">
        <route edges="bottom0A0 A0B0 B0C0 C0C1 C1D1 D1top3"/>
    </vehicle>
    <vehicle id="0.2" depart="20.00">
        <route edges="left1A1 A1B1 B1C1 C1D1 D1D0 D0right0"/>
    </vehicle>
    <vehicle id="1.2" depart="20.00">
        <route edges="right1D1 D1C1 C1B1 B1A1 A1A0 A0left0"/>
    </vehicle>
    <vehicle id="10.1" depart="20.00">
        <route edges="bottom1B0 B0C0 C0D0 D0D1 D1right1"/>
    </vehicle>
    <vehicle id="11.1" depart="20.00">
        <route edges="bottom2C0 C0C1 C1B1 B1A1 A1left1"/>
    </vehicle>
    <vehicle id="2.2" depart="20.00">
        <route edges="top0A1 A1B1 B1C1 C1D1 D1D0 D0bottom3"/>
    </vehicle>
    <vehicle id="3.2" depart="20.00">
        <route edges="top3D1 D1C1 C1B1 B1B0 B0A0 A0bottom0"/>
    </vehicle>
    <vehicle id="8.1" depart="20.00">
        <route edges="top1B1 B1B0 B0C0 C0D0 D0right0"/>
    </vehicle>
    <vehicle id="9.1" depart="20.00">
        <route edges="top2C1 C1B1 B1A1 A1A0 A0left0"/>
    </vehicle>
    <vehicle id="0.3" depart="30.00">
        <route edges="left1A1 A1B1 B1C1 C1D1 D1D0 D0right0"/>
    </vehicle>
    <vehicle id="1.3" depart="30.00">
        <route edges="right1D1 D1C1 C1B1 B1A1 A1A0 A0left0"/>
    </vehicle>
    <vehicle id="12.1" depart="30.00">
        <route edges="top1B1 B1C1 C1C0 C0bottom2"/>
    </vehicle>
    <vehicle id="13.1" depart="30.00">
        <route edges="top2C1 C1B1 B1B0 B0bottom1"/>
    </vehicle>
    <vehicle id="14.1" depart="30.00">
        <route edges="bottom2C0 C0B0 B0B1 B1top1"/>
    </vehicle>
    <vehicle id="15.1" depart="30.00">
        <route edges="bottom1B0 B0C0 C0C1 C1top2"/>
    </vehicle>
    <vehicle id="2.3" depart="30.00">
        <route edges="top0A1 A1B1 B1C1 C1D1 D1D0 D0bottom3"/>
    </vehicle>
    <vehicle id="3.3" depart="30.00">
        <route edges="top3D1 D1C1 C1B1 B1B0 B0A0 A0bottom0"/>
    </vehicle>
    <vehicle id="4.2" depart="30.00">
        <route edges="right0D0 D0C0 C0B0 B0A0 A0A1 A1left1"/>
    </vehicle>
    <vehicle id="5.2" depart="30.00">
        <route edges="left0A0 A0B0 B0C0 C0D0 D0D1 D1right1"/>
    </vehicle>
    <vehicle id="6.2" depart="30.00">
        <route edges="bottom3D0 D0C0 C0B0 B0A0 A0A1 A1top0"/>
    </vehicle>
    <vehicle id="7.2" depart="30.00">
        <route edges="bottom0A0 A0B0 B0C0 C0C1 C1D1 D1top3"/>
    </vehicle>
    <vehicle id="0.4" depart="40.00">
        <route edges="left1A1 A1B1 B1C1 C1D1 D1D0 D0right0"/>
    </vehicle>
    <vehicle id="1.4" depart="40.00">
        <route edges="right1D1 D1C1 C1B1 B1A1 A1A0 A0left0"/>
    </vehicle>
    <vehicle id="10.2" depart="40.00">
        <route edges="bottom1B0 B0C0 C0D0 D0D1 D1right1"/>
    </vehicle>
    <vehicle id="11.2" depart="40.00">
        <route edges="bottom2C0 C0C1 C1B1 B1A1 A1left1"/>
    </vehicle>
    <vehicle id="2.4" depart="40.00">
        <route edges="top0A1 A1B1 B1C1 C1D1 D1D0 D0bottom3"/>
    </vehicle>
    <vehicle id="3.4" depart="40.00">
        <route edges="top3D1 D1C1 C1B1 B1B0 B0A0 A0bottom0"/>
    </vehicle>
    <vehicle id="8.2" depart="40.00">
        <route edges="top1B1 B1B0 B0C0 C0D0 D0right0"/>
    </vehicle>
    <vehicle id="9.2" depart="40.00">
        <route edges="top2C1 C1B1 B1A1 A1A0 A0left0"/>
    </vehicle>
    <vehicle id="4.3" depart="45.00">
        <route edges="right0D0 D0C0 C0B0 B0A0 A0A1 A1left1"/>
    </vehicle>
    <vehicle id="5.3" depart="45.00">
        <route edges="left0A0 A0B0 B0C0 C0D0 D0D1 D1right1"/>
    </vehicle>
    <vehicle id="6.3" depart="45.00">
        <route edges="bottom3D0 D0C0 C0B0 B0A0 A0A1 A1top0"/>
    </vehicle>
    <vehicle id="7.3" depart="45.00">
        <route edges="bottom0A0 A0B0 B0C0 C0C1 C1D1 D1top3"/>
    </vehicle>
    <vehicle id="0.5" depart="50.00">
        <route edges="left1A1 A1B1 B1C1 C1D1 D1D0 D0right0"/>
    </vehicle>
    <vehicle id="1.5" depart="50.00">
        <route edges="right1D1 D1C1 C1B1 B1A1 A1A0 A0left0"/>
    </vehicle>
    <vehicle id="2.5" depart="50.00">
        <route edges="top0A1 A1B1 B1C1 C1D1 D1D0 D0bottom3"/>
    </vehicle>
    <vehicle id="3.5" depart="50.00">
        <route edges="top3D1 D1C1 C1B1 B1B0 B0A0 A0bottom0"/>
    </vehicle>
    <vehicle id="0.6" depart="60.00">
        <route edges="left1A1 A1B1 B1C1 C1D1 D1D0 D0right0"/>
    </vehicle>
    <vehicle id="1.6" depart="60.00">
        <route edges="right1D1 D1C1 C1B1 B1A1 A1A0 A0left0"/>
    </vehicle>
    <vehicle id="10.3" depart="60.00">
        <route edges="bottom1B0 B0C0 C0D0 D0D1 D1right1"/>
    </vehicle>
    <vehicle id="11.3" depart="60.00">
        <route edges="bottom2C0 C0C1 C1B1 B1A1 A1left1"/>
    </vehicle>
    <vehicle id="12.2" depart="60.00">
        <route edges="top1B1 B1C1 C1C0 C0bottom2"/>
    </vehicle>
    <vehicle id="13.2" depart="60.00">
        <route edges="top2C1 C1B1 B1B0 B0bottom1"/>
    </vehicle>
    <vehicle id="14.2" depart="60.00">
        <route edges="bottom2C0 C0B0 B0B1 B1top1"/>
    </vehicle>
    <vehicle id="15.2" depart="60.00">
        <route edges="bottom1B0 B0C0 C0C1 C1top2"/>
    </vehicle>
    <vehicle id="2.6" depart="60.00">
        <route edges="top0A1 A1B1 B1C1 C1D1 D1D0 D0bottom3"/>
    </vehicle>
    <vehicle id="3.6" depart="60.00">
        <route edges="top3D1 D1C1 C1B1 B1B0 B0A0 A0bottom0"/>
    </vehicle>
    <vehicle id="4.4" depart="60.00">
        <route edges="right0D0 D0C0 C0B0 B0A0 A0A1 A1left1"/>
    </vehicle>
    <vehicle id="5.4" depart="60.00">
        <route edges="left0A0 A0B0 B0C0 C0D0 D0D1 D1right1"/>
    </vehicle>
    <vehicle id="6.4" depart="60.00">
        <route edges="bottom3D0 D0C0 C0B0 B0A0 A0A1 A1top0"/>
    </vehicle>
    <vehicle id="7.4" depart="60.00">
        <route edges="bottom0A0 A0B0 B0C0 C0C1 C1D1 D1top3"/>
    </vehicle>
    <vehicle id="8.3" depart="60.00">
        <route edges="top1B1 B1B0 B0C0 C0D0 D0right0"/>
    </vehicle>
    <vehicle id="9.3" depart="60.00">
        <route edges="top2C1 C1B1 B1A1 A1A0 A0left0"/>
    </vehicle>
    <vehicle id="0.7" depart="70.00">
        <route edges="left1A1 A1B1 B1C1 C1D1 D1D0 D0right0"/>
    </vehicle>
    <vehicle id="1.7" depart="70.00">
        <route edges="right1D1 D1C1 C1B1 B1A1 A1A0 A0left0"/>
    </vehicle>
    <vehicle id="2.7" depart="70.00">
        <route edges="top0A1 A1B1 B1C1 C1D1 D1D0 D0bottom3"/>
    </vehicle>
    <vehicle id="3.7" depart="70.00">
        <route edges="top3D1 D1C1 C1B1 B1B0 B0A0 A0bottom0"/>
    </vehicle>
    <vehicle id="4.5" depart="75.00">
        <route edges="right0D0 D0C0 C0B0 B0A0 A0A1 A1left1"/>
    </vehicle>
    <vehicle id="5.5" depart="75.00">
        <route edges="left0A0 A0B0 B0C0 C0D0 D0D1 D1right1"/>
    </vehicle>
    <vehicle id="6.5" depart="75.00">
        <route edges="bottom3D0 D0C0 C0B0 B0A0 A0A1 A1top0"/>
    </vehicle>
    <vehicle id="7.5" depart="75.00">
        <route edges="bottom0A0 A0B0 B0C0 C0C1 C1D1 D1top3"/>
    </vehicle>
    <vehicle id="0.8" depart="80.00">
        <route edges="left1A1 A1B1 B1C1 C1D1 D1D0 D0right0"/>
    </vehicle>
    <vehicle id="1.8" depart="80.00">
        <route edges="right1D1 D1C1 C1B1 B1A1 A1A0 A0left0"/>
    </vehicle>
    <vehicle id="10.4" depart="80.00">
        <route edges="bottom1B0 B0C0 C0D0 D0D1 D1right1"/>
    </vehicle>
    <vehicle id="11.4" depart="80.00">
        <route edges="bottom2C0 C0C1 C1B1 B1A1 A1left1"/>
    </vehicle>
    <vehicle id="2.8" depart="80.00">
        <route edges="top0A1 A1B1 B1C1 C1D1 D1D0 D0bottom3"/>
    </vehicle>
    <vehicle id="3.8" depart="80.00">
        <route edges="top3D1 D1C1 C1B1 B1B0 B0A0 A0bottom0"/>
    </vehicle>
    <vehicle id="8.4" depart="80.00">
        <route edges="top1B1 B1B0 B0C0 C0D0 D0right0"/>
    </vehicle>
    <vehicle id="9.4" depart="80.00">
        <route edges="top2C1 C1B1 B1A1 A1A0 A0left0"/>
    </vehicle>
    <vehicle id="0.9" depart="90.00">
        <route edges="left1A1 A1B1 B1C1 C1D1 D1D0 D0right0"/>
    </vehicle>
    <vehicle id="1.9" depart="90.00">
        <route edges="right1D1 D1C1 C1B1 B1A1 A1A0 A0left0"/>
    </vehicle>
    <vehicle id="12.3" depart="90.00">
        <route edges="top1B1 B1C1 C1C0 C0bottom2"/>
    </vehicle>
    <vehicle id="13.3" depart="90.00">
        <route edges="top2C1 C1B1 B1B0 B0bottom1"/>
    </vehicle>
    <vehicle id="14.3" depart="90.00">
        <route edges="bottom2C0 C0B0 B0B1 B1top1"/>
    </vehicle>
    <vehicle id="15.3" depart="90.00">
        <route edges="bottom1B0 B0C0 C0C1 C1top2"/>
    </vehicle>
    <vehicle id="2.9" depart="90.00">
        <route edges="top0A1 A1B1 B1C1 C1D1 D1D0 D0bottom3"/>
    </vehicle>
    <vehicle id="3.9" depart="90.00">
        <route edges="top3D1 D1C1 C1B1 B1B0 B0A0 A0bottom0"/>
    </vehicle>
    <vehicle id="4.6" depart="90.00">
        <route edges="right0D0 D0C0 C0B0 B0A0 A0A1 A1left1"/>
    </vehicle>
    <vehicle id="5.6" depart="90.00">
        <route edges="left0A0 A0B0 B0C0 C0D0 D0D1 D1right1"/>
    </vehicle>
    <vehicle id="6.6" depart="90.00">
        <route edges="bottom3D0 D0C0 C0B0 B0A0 A0A1 A1top0"/>
    </vehicle>
    <vehicle id="7.6" depart="90.00">
        <route edges="bottom0A0 A0B0 B0C0 C0C1 C1D1 D1top3"/>
    </vehicle>
    <vehicle id="0.10" depart="100.00">
        <route edges="left1A1 A1B1 B1C1 C1D1 D1D0 D0right0"/>
    </vehicle>
    <vehicle id="1.10" depart="100.00">
        <route edges="right1D1 D1C1 C1B1 B1A1 A1A0 A0left0"/>
    </vehicle>
    <vehicle id="10.5" depart="100.00">
        <route edges="bottom1B0 B0C0 C0D0 D0D1 D1right1"/>
    </vehicle>
    <vehicle id="11.5" depart="100.00">
        <route edges="bottom2C0 C0C1 C1B1 B1A1 A1left1"/>
    </vehicle>
    <vehicle id="2.10" depart="100.00">
        <route edges="top0A1 A1B1 B1C1 C1D1 D1D0 D0bottom3"/>
    </vehicle>
    <vehicle id="3.10" depart="100.00">
        <route edges="top3D1 D1C1 C1B1 B1B0 B0A0 A0bottom0"/>
    </vehicle>
    <vehicle id="8.5" depart="100.00">
        <route edges="top1B1 B1B0 B0C0 C0D0 D0right0"/>
    </vehicle>
    <vehicle id="9.5" depart="100.00">
        <route edges="top2C1 C1B1 B1A1 A1A0 A0left0"/>
    </vehicle>
    <vehicle id="4.7" depart="105.00">
        <route edges="right0D0 D0C0 C0B0 B0A0 A0A1 A1left1"/>
    </vehicle>
    <vehicle id="5.7" depart="105.00">
        <route edges="left0A0 A0B0 B0C0 C0D0 D0D1 D1right1"/>
    </vehicle>
    <vehicle id="6.7" depart="105.00">
        <route edges="bottom3D0 D0C0 C0B0 B0A0 A0A1 A1top0"/>
    </vehicle>
    <vehicle id="7.7" depart="105.00">
        <route edges="bottom0A0 A0B0 B0C0 C0C1 C1D1 D1top3"/>
    </vehicle>
    <vehicle id="0.11" depart="110.00">
        <route edges="left1A1 A1B1 B1C1 C1D1 D1D0 D0right0"/>
    </vehicle>
    <vehicle id="1.11" depart="110.00">
        <route edges="right1D1 D1C1 C1B1 B1A1 A1A0 A0left0"/>
    </vehicle>
    <vehicle id="2.11" depart="110.00">
        <route edges="top0A1 A1B1 B1C1 C1D1 D1D0 D0bottom3"/>
    </vehicle>
    <vehicle id="3.11" depart="110.00">
        <route edges="top3D1 D1C1 C1B1 B1B0 B0A0 A0bottom0"/>
    </vehicle>
    <vehicle id="0.12" depart="120.00">
        <route edges="left1A1 A1B1 B1C1 C1D1 D1D0 D0right0"/>
    </vehicle>
    <vehicle id="1.12" depart="120.00">
        <route edges="right1D1 D1C1 C1B1 B1A1 A1A0 A0left0"/>
    </vehicle>
    <vehicle id="10.6" depart="120.00">
        <route edges="bottom1B0 B0C0 C0D0 D0D1 D1right1"/>
    </vehicle>
    <vehicle id="11.6" depart="120.00">
        <route edges="bottom2C0 C0C1 C1B1 B1A1 A1left1"/>
    </vehicle>
    <vehicle id="12.4" depart="120.00">
        <route edges="top1B1 B1C1 C1C0 C0bottom2"/>
    </vehicle>
    <vehicle id="13.4" depart="120.00">
        <route edges="top2C1 C1B1 B1B0 B0bottom1"/>
    </vehicle>
    <vehicle id="14.4" depart="120.00">
        <route edges="bottom2C0 C0B0 B0B1 B1top1"/>
    </vehicle>
    <vehicle id="15.4" depart="120.00">
        <route edges="bottom1B0 B0C0 C0C1 C1top2"/>
    </vehicle>
    <vehicle id="2.12" depart="120.00">
        <route edges="top0A1 A1B1 B1C1 C1D1 D1D0 D0bottom3"/>
    </vehicle>
    <vehicle id="3.12" depart="120.00">
        <route edges="top3D1 D1C1 C1B1 B1B0 B0A0 A0bottom0"/>
    </vehicle>
    <vehicle id="4.8" depart="120.00">
        <route edges="right0D0 D0C0 C0B0 B0A0 A0A1 A1left1"/>
    </vehicle>
    <vehicle id="5.8" depart="120.00">
        <route edges="left0A0 A0B0 B0C0 C0D0 D0D1 D1right1"/>
    </vehicle>
    <vehicle id="6.8" depart="120.00">
        <route edges="bottom3D0 D0C0 C0B0 B0A0 A0A1 A1top0"/>
    </vehicle>
    <vehicle id="7.8" depart="120.00">
        <route edges="bottom0A0 A0B0 B0C0 C0C1 C1D1 D1top3"/>
    </vehicle>
    <vehicle id="8.6" depart="120.00">
        <route edges="top1B1 B1B0 B0C0 C0D0 D0right0"/>
    </vehicle>
    <vehicle id="9.6" depart="120.00">
        <route edges="top2C1 C1B1 B1A1 A1A0 A0left0"/>
    </vehicle>
    <vehicle id="0.13" depart="130.00">
        <route edges="left1A1 A1B1 B1C1 C1D1 D1D0 D0right0"/>
    </vehicle>
    <vehicle id="1.13" depart="130.00">
        <route edges="right1D1 D1C1 C1B1 B1A1 A1A0 A0left0"/>
    </vehicle>
    <vehicle id="2.13" depart="130.00">
        <route edges="top0A1 A1B1 B1C1 C1D1 D1D0 D0bottom3"/>
    </vehicle>
    <vehicle id="3.13" depart="130.00">
        <route edges="top3D1 D1C1 C1B1 B1B0 B0A0 A0bottom0"/>
    </vehicle>
    <vehicle id="4.9" depart="135.00">
        <route edges="right0D0 D0C0 C0B0 B0A0 A0A1 A1left1"/>
    </vehicle>
    <vehicle id="5.9" depart="135.00">
        <route edges="left0A0 A0B0 B0C0 C0D0 D0D1 D1right1"/>
    </vehicle>
    <vehicle id="6.9" depart="135.00">
        <route edges="bottom3D0 D0C0 C0B0 B0A0 A0A1 A1top0"/>
    </vehicle>
    <vehicle id="7.9" depart="135.00">
        <route edges="bottom0A0 A0B0 B0C0 C0C1 C1D1 D1top3"/>
    </vehicle>
    <vehicle id="0.14" depart="140.00">
        <route edges="left1A1 A1B1 B1C1 C1D1 D1D0 D0right0"/>
    </vehicle>
    <vehicle id="1.14" depart="140.00">
        <route edges="right1D1 D1C1 C1B1 B1A1 A1A0 A0left0"/>
    </vehicle>
    <vehicle id="10.7" depart="140.00">
        <route edges="bottom1B0 B0C0 C0D0 D0D1 D1right1"/>
    </vehicle>
    <vehicle id="11.7" depart="140.00">
        <route edges="bottom2C0 C0C1 C1B1 B1A1 A1left1"/>
    </vehicle>
    <vehicle id="2.14" depart="140.00">
        <route edges="top0A1 A1B1 B1C1 C1D1 D1D0 D0bottom3"/>
    </vehicle>
    <vehicle id="3.14" depart="140.00">
        <route edges="top3D1 D1C1 C1B1 B1B0 B0A0 A0bottom0"/>
    </vehicle>
    <vehicle id="8.7" depart="140.00">
        <route edges="top1B1 B1B0 B0C0 C0D0 D0right0"/>
    </vehicle>
    <vehicle id="9.7" depart="140.00">
        <route edges="top2C1 C1B1 B1A1 A1A0 A0left0"/>
    </vehicle>
    <vehicle id="0.15" depart="150.00">
        <route edges="left1A1 A1B1 B1C1 C1D1 D1D0 D0right0"/>
    </vehicle>
    <vehicle id="1.15" depart="150.00">
        <route edges="right1D1 D1C1 C1B1 B1A1 A1A0 A0left0"/>
    </vehicle>
    <vehicle id="12.5" depart="150.00">
        <route edges="top1B1 B1C1 C1C0 C0bottom2"/>
    </vehicle>
    <vehicle id="13.5" depart="150.00">
        <route edges="top2C1 C1B1 B1B0 B0bottom1"/>
    </vehicle>
    <vehicle id="14.5" depart="150.00">
        <route edges="bottom2C0 C0B0 B0B1 B1top1"/>
    </vehicle>
    <vehicle id="15.5" depart="150.00">
        <route edges="bottom1B0 B0C0 C0C1 C1top2"/>
    </vehicle>
    <vehicle id="2.15" depart="150.00">
        <route edges="top0A1 A1B1 B1C1 C1D1 D1D0 D0bottom3"/>
    </vehicle>
    <vehicle id="3.15" depart="150.00">
        <route edges="top3D1 D1C1 C1B1 B1B0 B0A0 A0bottom0"/>
    </vehicle>
    <vehicle id="4.10" depart="150.00">
        <route edges="right0D0 D0C0 C0B0 B0A0 A0A1 A1left1"/>
    </vehicle>
    <vehicle id="5.10" depart="150.00">
        <route edges="left0A0 A0B0 B0C0 C0D0 D0D1 D1right1"/>
    </vehicle>
    <vehicle id="6.10" depart="150.00">
        <route edges="bottom3D0 D0C0 C0B0 B0A0 A0A1 A1top0"/>
    </vehicle>
    <vehicle id="7.10" depart="150.00">
        <route edges="bottom0A0 A0B0 B0C0 C0C1 C1D1 D1top3"/>
    </vehicle>
    <vehicle id="0.16" depart="160.00">
        <route edges="left1A1 A1B1 B1C1 C1D1 D1D0 D0right0"/>
    </vehicle>
    <vehicle id="1.16" depart="160.00">
        <route edges="right1D1 D1C1 C1B1 B1A1 A1A0 A0left0"/>
    </vehicle>
    <vehicle id="10.8" depart="160.00">
        <route edges="bottom1B0 B0C0 C0D0 D0D1 D1right1"/>
    </vehicle>
    <vehicle id="11.8" depart="160.00">
        <route edges="bottom2C0 C0C1 C1B1 B1A1 A1left1"/>
    </vehicle>
    <vehicle id="2.16" depart="160.00">
        <route edges="top0A1 A1B1 B1C1 C1D1 D1D0 D0bottom3"/>
    </vehicle>
    <vehicle id="3.16" depart="160.00">
        <route edges="top3D1 D1C1 C1B1 B1B0 B0A0 A0bottom0"/>
    </vehicle>
    <vehicle id="8.8" depart="160.00">
        <route edges="top1B1 B1B0 B0C0 C0D0 D0right0"/>
    </vehicle>
    <vehicle id="9.8" depart="160.00">
        <route edges="top2C1 C1B1 B1A1 A1A0 A0left0"/>
    </vehicle>
    <vehicle id="4.11" depart="165.00">
        <route edges="right0D0 D0C0 C0B0 B0A0 A0A1 A1left1"/>
    </vehicle>
    <vehicle id="5.11" depart="165.00">
        <route edges="left0A0 A0B0 B0C0 C0D0 D0D1 D1right1"/>
    </vehicle>
    <vehicle id="6.11" depart="165.00">
        <route edges="bottom3D0 D0C0 C0B0 B0A0 A0A1 A1top0"/>
    </vehicle>
    <vehicle id="7.11" depart="165.00">
        <route edges="bottom0A0 A0B0 B0C0 C0C1 C1D1 D1top3"/>
    </vehicle>
    <vehicle id="0.17" depart="170.00">
        <route edges="left1A1 A1B1 B1C1 C1D1 D1D0 D0right0"/>
    </vehicle>
    <vehicle id="1.17" depart="170.00">
        <route edges="right1D1 D1C1 C1B1 B1A1 A1A0 A0left0"/>
    </vehicle>
    <vehicle id="2.17" depart="170.00">
        <route edges="top0A1 A1B1 B1C1 C1D1 D1D0 D0bottom3"/>
    </vehicle>
    <vehicle id="3.17" depart="170.00">
        <route edges="top3D1 D1C1 C1B1 B1B0 B0A0 A0bottom0"/>
    </vehicle>
    <vehicle id="0.18" depart="180.00">
        <route edges="left1A1 A1B1 B1C1 C1D1 D1D0 D0right0"/>
    </vehicle>
    <vehicle id="1.18" depart="180.00">
        <route edges="right1D1 D1C1 C1B1 B1A1 A1A0 A0left0"/>
    </vehicle>
    <vehicle id="10.9" depart="180.00">
        <route edges="bottom1B0 B0C0 C0D0 D0D1 D1right1"/>
    </vehicle>
    <vehicle id="11.9" depart="180.00">
        <route edges="bottom2C0 C0C1 C1B1 B1A1 A1left1"/>
    </vehicle>
    <vehicle id="12.6" depart="180.00">
        <route edges="top1B1 B1C1 C1C0 C0bottom2"/>
    </vehicle>
    <vehicle id="13.6" depart="180.00">
        <route edges="top2C1 C1B1 B1B0 B0bottom1"/>
    </vehicle>
    <vehicle id="14.6" depart="180.00">
        <route edges="bottom2C0 C0B0 B0B1 B1top1"/>
    </vehicle>
    <vehicle id="15.6" depart="180.00">
        <route edges="bottom1B0 B0C0 C0C1 C1top2"/>
    </vehicle>
    <vehicle id="2.18" depart="180.00">
        <route edges="top0A1 A1B1 B1C1 C1D1 D1D0 D0bottom3"/>
    </vehicle>
    <vehicle id="3.18" depart="180.00">
        <route edges="top3D1 D1C1 C1B1 B1B0 B0A0 A0bottom0"/>
    </vehicle>
    <vehicle id="4.12" depart="180.00">
        <route edges="right0D0 D0C0 C0B0 B0A0 A0A1 A1left1"/>
    </vehicle>
    <vehicle id="5.12" depart="180.00">
        <route edges="left0A0 A0B0 B0C0 C0D0 D0D1 D1right1"/>
    </vehicle>
    <vehicle id="6.12" depart="180.00">
        <route edges="bottom3D0 D0C0 C0B0 B0A0 A0A1 A1top0"/>
    </vehicle>
    <vehicle id="7.12" depart="180.00">
        <route edges="bottom0A0 A0B0 B0C0 C0C1 C1D1 D1top3"/>
    </vehicle>
    <vehicle id="8.9" depart="180.00">
        <route edges="top1B1 B1B0 B0C0 C0D0 D0right0"/>
    </vehicle>
    <vehicle id="9.9" depart="180.00">
        <route edges="top2C1 C1B1 B1A1 A1A0 A0left0"/>
    </vehicle>
    <vehicle id="0.19" depart="190.00">
        <route edges="left1A1 A1B1 B1C1 C1D1 D1D0 D0right0"/>
    </vehicle>
    <vehicle id="1.19" depart="190.00">
        <route edges="right1D1 D1C1 C1B1 B1A1 A1A0 A0left0"/>
    </vehicle>
    <vehicle id="2.19" depart="190.00">
        <route edges="top0A1 A1B1 B1C1 C1D1 D1D0 D0bottom3"/>
    </vehicle>
    <vehicle id="3.19" depart="190.00">
        <route edges="top3D1 D1C1 C1B1 B1B0 B0A0 A0bottom0"/>
    </vehicle>
    <vehicle id="4.13" depart="195.00">
        <route edges="right0D0 D0C0 C0B0 B0A0 A0A1 A1left1"/>
    </vehicle>
    <vehicle id="5.13" depart="195.00">
        <route edges="left0A0 A0B0 B0C0 C0D0 D0D1 D1right1"/>
    </vehicle>
    <vehicle id="6.13" depart="195.00">
        <route edges="bottom3D0 D0C0 C0B0 B0A0 A0A1 A1top0"/>
    </vehicle>
    <vehicle id="7.13" depart="195.00">
        <route edges="bottom0A0 A0B0 B0C0 C0C1 C1D1 D1top3"/>
    </vehicle>
    <vehicle id="0.20" depart="200.00">
        <route edges="left1A1 A1B1 B1C1 C1D1 D1D0 D0right0"/>
    </vehicle>
    <vehicle id="1.20" depart="200.00">
        <route edges="right1D1 D1C1 C1B1 B1A1 A1A0 A0left0"/>
    </vehicle>
    <vehicle id="10.10" depart="200.00">
        <route edges="bottom1B0 B0C0 C0D0 D0D1 D1right1"/>
    </vehicle>
    <vehicle id="11.10" depart="200.00">
        <route edges="bottom2C0 C0C1 C1B1 B1A1 A1left1"/>
    </vehicle>
    <vehicle id="2.20" depart="200.00">
        <route edges="top0A1 A1B1 B1C1 C1D1 D1D0 D0bottom3"/>
    </vehicle>
    <vehicle id="3.20" depart="200.00">
        <route edges="top3D1 D1C1 C1B1 B1B0 B0A0 A0bottom0"/>
    </vehicle>
    <vehicle id="8.10" depart="200.00">
        <route edges="top1B1 B1B0 B0C0 C0D0 D0right0"/>
    </vehicle>
    <vehicle id="9.10" depart="200.00">
        <route edges="top2C1 C1B1 B1A1 A1A0 A0left0"/>
    </vehicle>
    <vehicle id="0.21" depart="210.00">
        <route edges="left1A1 A1B1 B1C1 C1D1 D1D0 D0right0"/>
    </vehicle>
    <vehicle id="1.21" depart="210.00">
        <route edges="right1D1 D1C1 C1B1 B1A1 A1A0 A0left0"/>
    </vehicle>
    <vehicle id="12.7" depart="210.00">
        <route edges="top1B1 B1C1 C1C0 C0bottom2"/>
    </vehicle>
    <vehicle id="13.7" depart="210.00">
        <route edges="top2C1 C1B1 B1B0 B0bottom1"/>
    </vehicle>
    <vehicle id="14.7" depart="210.00">
        <route edges="bottom2C0 C0B0 B0B1 B1top1"/>
    </vehicle>
    <vehicle id="15.7" depart="210.00">
        <route edges="bottom1B0 B0C0 C0C1 C1top2"/>
    </vehicle>
    <vehicle id="2.21" depart="210.00">
        <route edges="top0A1 A1B1 B1C1 C1D1 D1D0 D0bottom3"/>
    </vehicle>
    <vehicle id="3.21" depart="210.00">
        <route edges="top3D1 D1C1 C1B1 B1B0 B0A0 A0bottom0"/>
    </vehicle>
    <vehicle id="4.14" depart="210.00">
        <route edges="right0D0 D0C0 C0B0 B0A0 A0A1 A1left1"/>
    </vehicle>
    <vehicle id="5.14" depart="210.00">
        <route edges="left0A0 A0B0 B0C0 C0D0 D0D1 D1right1"/>
    </vehicle>
    <vehicle id="6.14" depart="210.00">
        <route edges="bottom3D0 D0C0 C0B0 B0A0 A0A1 A1top0"/>
    </vehicle>
    <vehicle id="7.14" depart="210.00">
        <route edges="bottom0A0 A0B0 B0C0 C0C1 C1D1 D1top3"/>
    </vehicle>
    <vehicle id="0.22" depart="220.00">
        <route edges="left1A1 A1B1 B1C1 C1D1 D1D0 D0right0"/>
    </vehicle>
    <vehicle id="1.22" depart="220.00">
        <route edges="right1D1 D1C1 C1B1 B1A1 A1A0 A0left0"/>
    </vehicle>
    <vehicle id="10.11" depart="220.00">
        <route edges="bottom1B0 B0C0 C0D0 D0D1 D1right1"/>
    </vehicle>
    <vehicle id="11.11" depart="220.00">
        <route edges="bottom2C0 C0C1 C1B1 B1A1 A1left1"/>
    </vehicle>
    <vehicle id="2.22" depart="220.00">
        <route edges="top0A1 A1B1 B1C1 C1D1 D1D0 D0bottom3"/>
    </vehicle>
    <vehicle id="3.22" depart="220.00">
        <route edges="top3D1 D1C1 C1B1 B1B0 B0A0 A0bottom0"/>
    </vehicle>
    <vehicle id="8.11" depart="220.00">
        <route edges="top1B1 B1B0 B0C0 C0D0 D0right0"/>
    </vehicle>
    <vehicle id="9.11" depart="220.00">
        <route edges="top2C1 C1B1 B1A1 A1A0 A0left0"/>
    </vehicle>
    <vehicle id="4.15" depart="225.00">
        <route edges="right0D0 D0C0 C0B0 B0A0 A0A1 A1left1"/>
    </vehicle>
    <vehicle id="5.15" depart="225.00">
        <route edges="left0A0 A0B0 B0C0 C0D0 D0D1 D1right1"/>
    </vehicle>
    <vehicle id="6.15" depart="225.00">
        <route edges="bottom3D0 D0C0 C0B0 B0A0 A0A1 A1top0"/>
    </vehicle>
    <vehicle id="7.15" depart="225.00">
        <route edges="bottom0A0 A0B0 B0C0 C0C1 C1D1 D1top3"/>
    </vehicle>
    <vehicle id="0.23" depart="230.00">
        <route edges="left1A1 A1B1 B1C1 C1D1 D1D0 D0right0"/>
    </vehicle>
    <vehicle id="1.23" depart="230.00">
        <route edges="right1D1 D1C1 C1B1 B1A1 A1A0 A0left0"/>
    </vehicle>
    <vehicle id="2.23" depart="230.00">
        <route edges="top0A1 A1B1 B1C1 C1D1 D1D0 D0bottom3"/>
    </vehicle>
    <vehicle id="3.23" depart="230.00">
        <route edges="top3D1 D1C1 C1B1 B1B0 B0A0 A0bottom0"/>
    </vehicle>
    <vehicle id="0.24" depart="240.00">
        <route edges="left1A1 A1B1 B1C1 C1D1 D1D0 D0right0"/>
    </vehicle>
    <vehicle id="1.24" depart="240.00">
        <route edges="right1D1 D1C1 C1B1 B1A1 A1A0 A0left0"/>
    </vehicle>
    <vehicle id="10.12" depart="240.00">
        <route edges="bottom1B0 B0C0 C0D0 D0D1 D1right1"/>
    </vehicle>
    <vehicle id="11.12" depart="240.00">
        <route edges="bottom2C0 C0C1 C1B1 B1A1 A1left1"/>
    </vehicle>
    <vehicle id="12.8" depart="240.00">
        <route edges="top1B1 B1C1 C1C0 C0bottom2"/>
    </vehicle>
    <vehicle id="13.8" depart="240.00">
        <route edges="top2C1 C1B1 B1B0 B0bottom1"/>
    </vehicle>
    <vehicle id="14.8" depart="240.00">
        <route edges="bottom2C0 C0B0 B0B1 B1top1"/>
    </vehicle>
    <vehicle id="15.8" depart="240.00">
        <route edges="bottom1B0 B0C0 C0C1 C1top2"/>
    </vehicle>
    <vehicle id="2.24" depart="240.00">
        <route edges="top0A1 A1B1 B1C1 C1D1 D1D0 D0bottom3"/>
    </vehicle>
    <vehicle id="3.24" depart="240.00">
        <route edges="top3D1 D1C1 C1B1 B1B0 B0A0 A0bottom0"/>
    </vehicle>
    <vehicle id="4.16" depart="240.00">
        <route edges="right0D0 D0C0 C0B0 B0A0 A0A1 A1left1"/>
    </vehicle>
    <vehicle id="5.16" depart="240.00">
        <route edges="left0A0 A0B0 B0C0 C0D0 D0D1 D1right1"/>
    </vehicle>
    <vehicle id="6.16" depart="240.00">
        <route edges="bottom3D0 D0C0 C0B0 B0A0 A0A1 A1top0"/>
    </vehicle>
    <vehicle id="7.16" depart="240.00">
        <route edges="bottom0A0 A0B0 B0C0 C0C1 C1D1 D1top3"/>
    </vehicle>
    <vehicle id="8.12" depart="240.00">
        <route edges="top1B1 B1B0 B0C0 C0D0 D0right0"/>
    </vehicle>
    <vehicle id="9.12" depart="240.00">
        <route edges="top2C1 C1B1 B1A1 A1A0 A0left0"/>
    </vehicle>
    <vehicle id="0.25" depart="250.00">
        <route edges="left1A1 A1B1 B1C1 C1D1 D1D0 D0right0"/>
    </vehicle>
    <vehicle id="1.25" depart="250.00">
        <route edges="right1D1 D1C1 C1B1 B1A1 A1A0 A0left0"/>
    </vehicle>