<?xml version="1.0" encoding="UTF-8"?>

<!-- generated on 2024-10-22 16:19:34 by Eclipse SUMO netgenerate Version 1.15.0
<configuration xmlns:xsi="http://www.w3.org/2001/XMLSchema-instance" xsi:noNamespaceSchemaLocation="http://sumo.dlr.de/xsd/netgenerateConfiguration.xsd">

    <grid_network>
        <grid value="true"/>
        <grid.x-number value="4"/>
        <grid.y-number value="2"/>
        <grid.x-length value="250"/>
        <grid.y-length value="500"/>
        <grid.attach-length value="100"/>
    </grid_network>

    <output>
        <output-file value="grid_dynamic.net.xml"/>
    </output>

    <processing>
        <turn-lanes value="0"/>
        <turn-lanes.length value="20"/>
        <numerical-ids value="false"/>
        <offset.disable-normalization value="false"/>
        <offset.x value="0"/>
        <offset.y value="0"/>
        <flip-y-axis value="false"/>
        <roundabouts.guess value="true"/>
        <opposites.guess value="false"/>
        <opposites.guess.fix-lengths value="false"/>
        <lefthand value="false"/>
        <edges.join value="false"/>
    </processing>

    <building_defaults>
        <default.lanenumber value="2"/>
        <default.lanewidth value="5"/>
        <default.speed value="13.89"/>
        <default.priority value="-1"/>
        <default.sidewalk-width value="2"/>
        <default.crossing-width value="4"/>
        <default.junctions.keep-clear value="true"/>
        <default.junctions.radius value="4"/>
    </building_defaults>

    <tls_building>
        <tls.guess value="false"/>
        <tls.guess.joining value="false"/>
        <tls.join value="false"/>
        <tls.join-dist value="20"/>
        <tls.uncontrolled-within value="false"/>
        <tls.cycle.time value="90"/>
        <tls.yellow.min-decel value="3"/>
        <tls.yellow.patch-small value="false"/>
        <tls.yellow.time value="-1"/>
        <tls.red.time value="5"/>
        <tls.allred.time value="0"/>
        <tls.minor-left.max-speed value="19.44"/>
        <tls.left-green.time value="6"/>
        <tls.crossing-min.time value="4"/>
        <tls.crossing-clearance.time value="5"/>
        <tls.scramble.time value="5"/>
        <tls.default-type value="static"/>
        <tls.min-dur value="5"/>
        <tls.max-dur value="50"/>
    </tls_building>

    <edge_removal>
        <keep-edges.min-speed value="-1"/>
    </edge_removal>

    <unregulated_nodes>
        <keep-nodes-unregulated value="false"/>
        <keep-nodes-unregulated.district-nodes value="false"/>
    </unregulated_nodes>

    <junctions>
        <no-internal-links value="false"/>
        <no-turnarounds value="true"/>
        <no-turnarounds.tls value="false"/>
        <no-turnarounds.except-deadend value="false"/>
        <no-left-connections value="false"/>
        <junctions.join value="false"/>
        <junctions.join-dist value="10"/>
        <junctions.corner-detail value="5"/>
        <junctions.internal-link-detail value="5"/>
        <junctions.scurve-stretch value="0"/>
        <junctions.join-turns value="false"/>
        <junctions.limit-turn-speed value="5.5"/>
        <junctions.limit-turn-speed.min-angle value="15"/>
        <junctions.limit-turn-speed.min-angle.railway value="35"/>
        <junctions.limit-turn-speed.warn.straight value="5"/>
        <junctions.limit-turn-speed.warn.turn value="22"/>
        <junctions.small-radius value="1.5"/>
        <rectangular-lane-cut value="false"/>
        <check-lane-foes.roundabout value="true"/>
        <check-lane-foes.all value="false"/>
    </junctions>

    <pedestrian>
        <sidewalks.guess value="false"/>
        <sidewalks.guess.max-speed value="13.89"/>
        <sidewalks.guess.min-speed value="5.8"/>
        <sidewalks.guess.from-permissions value="false"/>
        <crossings.guess value="false"/>
        <crossings.guess.speed-threshold value="13.89"/>
        <walkingareas value="false"/>
    </pedestrian>

    <report>
        <verbose value="false"/>
        <print-options value="false"/>
        <help value=""/>
        <version value="false"/>
        <xml-validation value="never"/>
        <no-warnings value="false"/>
    </report>

    <random_number>
        <random value="false"/>
        <seed value="23423"/>
    </random_number>

</configuration>
-->

<net version="1.9" junctionCornerDetail="5" junctionLinkDetail="5" limitTurnSpeed="5.50" checkLaneFoesAll="0" checkLaneFoesRoundabout="1" xmlns:xsi="http://www.w3.org/2001/XMLSchema-instance" xsi:noNamespaceSchemaLocation="http://sumo.dlr.de/xsd/net_file.xsd">

    <location netOffset="0.00,0.00" convBoundary="0.00,0.00,950.00,700.00" origBoundary="0.00,0.00,950.00,700.00" projParameter="!"/>

    <edge id=":A0_0" function="internal">
        <lane id=":A0_0_0" index="0" speed="7.14" length="10.48" width="5.00" shape="92.50,114.00 92.09,111.16 90.88,109.12 88.84,107.91 86.00,107.50"/>
    </edge>
    <edge id=":A0_1" function="internal">
        <lane id=":A0_1_0" index="0" speed="13.89" length="28.00" width="5.00" shape="92.50,114.00 92.50,86.00"/>
        <lane id=":A0_1_1" index="1" speed="13.89" length="28.00" width="5.00" shape="97.50,114.00 97.50,86.00"/>
    </edge>
    <edge id=":A0_3" function="internal">
        <lane id=":A0_3_0" index="0" speed="10.89" length="8.28" width="5.00" shape="97.50,114.00 98.53,106.78 99.04,105.93"/>
    </edge>
    <edge id=":A0_16" function="internal">
        <lane id=":A0_16_0" index="0" speed="10.89" length="18.33" width="5.00" shape="99.04,105.93 101.62,101.62 106.78,98.53 114.00,97.50"/>
    </edge>
    <edge id=":A0_4" function="internal">
        <lane id=":A0_4_0" index="0" speed="7.14" length="10.48" width="5.00" shape="114.00,107.50 111.16,107.91 109.12,109.13 107.91,111.16 107.50,114.00"/>
    </edge>
    <edge id=":A0_5" function="internal">
        <lane id=":A0_5_0" index="0" speed="13.89" length="28.00" width="5.00" shape="114.00,107.50 86.00,107.50"/>
        <lane id=":A0_5_1" index="1" speed="13.89" length="28.00" width="5.00" shape="114.00,102.50 86.00,102.50"/>
    </edge>
    <edge id=":A0_7" function="internal">
        <lane id=":A0_7_0" index="0" speed="10.89" length="26.61" width="5.00" shape="114.00,102.50 106.78,101.47 101.62,98.38 98.53,93.22 97.50,86.00"/>
    </edge>
    <edge id=":A0_8" function="internal">
        <lane id=":A0_8_0" index="0" speed="7.14" length="10.48" width="5.00" shape="107.50,86.00 107.91,88.84 109.12,90.88 111.16,92.09 114.00,92.50"/>
    </edge>
    <edge id=":A0_9" function="internal">
        <lane id=":A0_9_0" index="0" speed="13.89" length="28.00" width="5.00" shape="107.50,86.00 107.50,114.00"/>
        <lane id=":A0_9_1" index="1" speed="13.89" length="28.00" width="5.00" shape="102.50,86.00 102.50,114.00"/>
    </edge>
    <edge id=":A0_11" function="internal">
        <lane id=":A0_11_0" index="0" speed="10.89" length="8.28" width="5.00" shape="102.50,86.00 101.47,93.22 100.96,94.07"/>
    </edge>
    <edge id=":A0_17" function="internal">
        <lane id=":A0_17_0" index="0" speed="10.89" length="18.33" width="5.00" shape="100.96,94.07 98.38,98.38 93.22,101.47 86.00,102.50"/>
    </edge>
    <edge id=":A0_12" function="internal">
        <lane id=":A0_12_0" index="0" speed="7.14" length="10.48" width="5.00" shape="86.00,92.50 88.84,92.09 90.88,90.88 92.09,88.84 92.50,86.00"/>
    </edge>
    <edge id=":A0_13" function="internal">
        <lane id=":A0_13_0" index="0" speed="13.89" length="28.00" width="5.00" shape="86.00,92.50 114.00,92.50"/>
        <lane id=":A0_13_1" index="1" speed="13.89" length="28.00" width="5.00" shape="86.00,97.50 114.00,97.50"/>
    </edge>
    <edge id=":A0_15" function="internal">
        <lane id=":A0_15_0" index="0" speed="10.89" length="26.61" width="5.00" shape="86.00,97.50 93.22,98.53 98.38,101.62 101.47,106.78 102.50,114.00"/>
    </edge>
    <edge id=":A1_0" function="internal">
        <lane id=":A1_0_0" index="0" speed="7.14" length="10.48" width="5.00" shape="92.50,614.00 92.09,611.16 90.88,609.12 88.84,607.91 86.00,607.50"/>
    </edge>
    <edge id=":A1_1" function="internal">
        <lane id=":A1_1_0" index="0" speed="13.89" length="28.00" width="5.00" shape="92.50,614.00 92.50,586.00"/>
        <lane id=":A1_1_1" index="1" speed="13.89" length="28.00" width="5.00" shape="97.50,614.00 97.50,586.00"/>
    </edge>
    <edge id=":A1_3" function="internal">
        <lane id=":A1_3_0" index="0" speed="10.89" length="8.28" width="5.00" shape="97.50,614.00 98.53,606.78 99.04,605.93"/>
    </edge>
    <edge id=":A1_16" function="internal">
        <lane id=":A1_16_0" index="0" speed="10.89" length="18.33" width="5.00" shape="99.04,605.93 101.62,601.62 106.78,598.53 114.00,597.50"/>
    </edge>
    <edge id=":A1_4" function="internal">
        <lane id=":A1_4_0" index="0" speed="7.14" length="10.48" width="5.00" shape="114.00,607.50 111.16,607.91 109.12,609.12 107.91,611.16 107.50,614.00"/>
    </edge>
    <edge id=":A1_5" function="internal">
        <lane id=":A1_5_0" index="0" speed="13.89" length="28.00" width="5.00" shape="114.00,607.50 86.00,607.50"/>
        <lane id=":A1_5_1" index="1" speed="13.89" length="28.00" width="5.00" shape="114.00,602.50 86.00,602.50"/>
    </edge>
    <edge id=":A1_7" function="internal">
        <lane id=":A1_7_0" index="0" speed="10.89" length="26.61" width="5.00" shape="114.00,602.50 106.78,601.47 101.62,598.38 98.53,593.22 97.50,586.00"/>
    </edge>
    <edge id=":A1_8" function="internal">
        <lane id=":A1_8_0" index="0" speed="7.14" length="10.48" width="5.00" shape="107.50,586.00 107.91,588.84 109.12,590.88 111.16,592.09 114.00,592.50"/>
    </edge>
    <edge id=":A1_9" function="internal">
        <lane id=":A1_9_0" index="0" speed="13.89" length="28.00" width="5.00" shape="107.50,586.00 107.50,614.00"/>
        <lane id=":A1_9_1" index="1" speed="13.89" length="28.00" width="5.00" shape="102.50,586.00 102.50,614.00"/>
    </edge>
    <edge id=":A1_11" function="internal">
        <lane id=":A1_11_0" index="0" speed="10.89" length="8.28" width="5.00" shape="102.50,586.00 101.47,593.22 100.96,594.07"/>
    </edge>
    <edge id=":A1_17" function="internal">
        <lane id=":A1_17_0" index="0" speed="10.89" length="18.33" width="5.00" shape="100.96,594.07 98.38,598.38 93.22,601.47 86.00,602.50"/>
    </edge>
    <edge id=":A1_12" function="internal">
        <lane id=":A1_12_0" index="0" speed="7.14" length="10.48" width="5.00" shape="86.00,592.50 88.84,592.09 90.88,590.88 92.09,588.84 92.50,586.00"/>
    </edge>
    <edge id=":A1_13" function="internal">
        <lane id=":A1_13_0" index="0" speed="13.89" length="28.00" width="5.00" shape="86.00,592.50 114.00,592.50"/>
        <lane id=":A1_13_1" index="1" speed="13.89" length="28.00" width="5.00" shape="86.00,597.50 114.00,597.50"/>
    </edge>
    <edge id=":A1_15" function="internal">
        <lane id=":A1_15_0" index="0" speed="10.89" length="26.61" width="5.00" shape="86.00,597.50 93.22,598.53 98.38,601.62 101.47,606.78 102.50,614.00"/>
    </edge>
    <edge id=":B0_0" function="internal">
        <lane id=":B0_0_0" index="0" speed="7.14" length="10.48" width="5.00" shape="342.50,114.00 342.09,111.16 340.88,109.12 338.84,107.91 336.00,107.50"/>
    </edge>
    <edge id=":B0_1" function="internal">
        <lane id=":B0_1_0" index="0" speed="13.89" length="28.00" width="5.00" shape="342.50,114.00 342.50,86.00"/>
        <lane id=":B0_1_1" index="1" speed="13.89" length="28.00" width="5.00" shape="347.50,114.00 347.50,86.00"/>
    </edge>
    <edge id=":B0_3" function="internal">
        <lane id=":B0_3_0" index="0" speed="10.89" length="8.28" width="5.00" shape="347.50,114.00 348.53,106.78 349.04,105.93"/>
    </edge>
    <edge id=":B0_16" function="internal">
        <lane id=":B0_16_0" index="0" speed="10.89" length="18.33" width="5.00" shape="349.04,105.93 351.62,101.62 356.78,98.53 364.00,97.50"/>
    </edge>
    <edge id=":B0_4" function="internal">
        <lane id=":B0_4_0" index="0" speed="7.14" length="10.48" width="5.00" shape="364.00,107.50 361.16,107.91 359.12,109.12 357.91,111.16 357.50,114.00"/>
    </edge>
    <edge id=":B0_5" function="internal">
        <lane id=":B0_5_0" index="0" speed="13.89" length="28.00" width="5.00" shape="364.00,107.50 336.00,107.50"/>
        <lane id=":B0_5_1" index="1" speed="13.89" length="28.00" width="5.00" shape="364.00,102.50 336.00,102.50"/>
    </edge>
    <edge id=":B0_7" function="internal">
        <lane id=":B0_7_0" index="0" speed="10.89" length="26.61" width="5.00" shape="364.00,102.50 356.78,101.47 351.62,98.38 348.53,93.22 347.50,86.00"/>
    </edge>
    <edge id=":B0_8" function="internal">
        <lane id=":B0_8_0" index="0" speed="7.14" length="10.48" width="5.00" shape="357.50,86.00 357.91,88.84 359.12,90.88 361.16,92.09 364.00,92.50"/>
    </edge>
    <edge id=":B0_9" function="internal">
        <lane id=":B0_9_0" index="0" speed="13.89" length="28.00" width="5.00" shape="357.50,86.00 357.50,114.00"/>
        <lane id=":B0_9_1" index="1" speed="13.89" length="28.00" width="5.00" shape="352.50,86.00 352.50,114.00"/>
    </edge>
    <edge id=":B0_11" function="internal">
        <lane id=":B0_11_0" index="0" speed="10.89" length="8.28" width="5.00" shape="352.50,86.00 351.47,93.22 350.96,94.07"/>
    </edge>
    <edge id=":B0_17" function="internal">
        <lane id=":B0_17_0" index="0" speed="10.89" length="18.33" width="5.00" shape="350.96,94.07 348.38,98.38 343.22,101.47 336.00,102.50"/>
    </edge>
    <edge id=":B0_12" function="internal">
        <lane id=":B0_12_0" index="0" speed="7.14" length="10.48" width="5.00" shape="336.00,92.50 338.84,92.09 340.88,90.88 342.09,88.84 342.50,86.00"/>
    </edge>
    <edge id=":B0_13" function="internal">
        <lane id=":B0_13_0" index="0" speed="13.89" length="28.00" width="5.00" shape="336.00,92.50 364.00,92.50"/>
        <lane id=":B0_13_1" index="1" speed="13.89" length="28.00" width="5.00" shape="336.00,97.50 364.00,97.50"/>
    </edge>
    <edge id=":B0_15" function="internal">
        <lane id=":B0_15_0" index="0" speed="10.89" length="26.61" width="5.00" shape="336.00,97.50 343.22,98.53 348.38,101.62 351.47,106.78 352.50,114.00"/>
    </edge>
    <edge id=":B1_0" function="internal">
        <lane id=":B1_0_0" index="0" speed="7.14" length="10.48" width="5.00" shape="342.50,614.00 342.09,611.16 340.88,609.12 338.84,607.91 336.00,607.50"/>
    </edge>
    <edge id=":B1_1" function="internal">
        <lane id=":B1_1_0" index="0" speed="13.89" length="28.00" width="5.00" shape="342.50,614.00 342.50,586.00"/>
        <lane id=":B1_1_1" index="1" speed="13.89" length="28.00" width="5.00" shape="347.50,614.00 347.50,586.00"/>
    </edge>
    <edge id=":B1_3" function="internal">
        <lane id=":B1_3_0" index="0" speed="10.89" length="8.28" width="5.00" shape="347.50,614.00 348.53,606.78 349.04,605.93"/>
    </edge>
    <edge id=":B1_16" function="internal">
        <lane id=":B1_16_0" index="0" speed="10.89" length="18.33" width="5.00" shape="349.04,605.93 351.62,601.62 356.78,598.53 364.00,597.50"/>
    </edge>
    <edge id=":B1_4" function="internal">
        <lane id=":B1_4_0" index="0" speed="7.14" length="10.48" width="5.00" shape="364.00,607.50 361.16,607.91 359.12,609.12 357.91,611.16 357.50,614.00"/>
    </edge>
    <edge id=":B1_5" function="internal">
        <lane id=":B1_5_0" index="0" speed="13.89" length="28.00" width="5.00" shape="364.00,607.50 336.00,607.50"/>
        <lane id=":B1_5_1" index="1" speed="13.89" length="28.00" width="5.00" shape="364.00,602.50 336.00,602.50"/>
    </edge>
    <edge id=":B1_7" function="internal">
        <lane id=":B1_7_0" index="0" speed="10.89" length="26.61" width="5.00" shape="364.00,602.50 356.78,601.47 351.62,598.38 348.53,593.22 347.50,586.00"/>
    </edge>
    <edge id=":B1_8" function="internal">
        <lane id=":B1_8_0" index="0" speed="7.14" length="10.48" width="5.00" shape="357.50,586.00 357.91,588.84 359.12,590.88 361.16,592.09 364.00,592.50"/>
    </edge>
    <edge id=":B1_9" function="internal">
        <lane id=":B1_9_0" index="0" speed="13.89" length="28.00" width="5.00" shape="357.50,586.00 357.50,614.00"/>
        <lane id=":B1_9_1" index="1" speed="13.89" length="28.00" width="5.00" shape="352.50,586.00 352.50,614.00"/>
    </edge>
    <edge id=":B1_11" function="internal">
        <lane id=":B1_11_0" index="0" speed="10.89" length="8.28" width="5.00" shape="352.50,586.00 351.47,593.22 350.96,594.07"/>
    </edge>
    <edge id=":B1_17" function="internal">
        <lane id=":B1_17_0" index="0" speed="10.89" length="18.33" width="5.00" shape="350.96,594.07 348.38,598.38 343.22,601.47 336.00,602.50"/>
    </edge>
    <edge id=":B1_12" function="internal">
        <lane id=":B1_12_0" index="0" speed="7.14" length="10.48" width="5.00" shape="336.00,592.50 338.84,592.09 340.88,590.88 342.09,588.84 342.50,586.00"/>
    </edge>
    <edge id=":B1_13" function="internal">
        <lane id=":B1_13_0" index="0" speed="13.89" length="28.00" width="5.00" shape="336.00,592.50 364.00,592.50"/>
        <lane id=":B1_13_1" index="1" speed="13.89" length="28.00" width="5.00" shape="336.00,597.50 364.00,597.50"/>
    </edge>
    <edge id=":B1_15" function="internal">
        <lane id=":B1_15_0" index="0" speed="10.89" length="26.61" width="5.00" shape="336.00,597.50 343.22,598.53 348.38,601.62 351.47,606.78 352.50,614.00"/>
    </edge>
    <edge id=":C0_0" function="internal">
        <lane id=":C0_0_0" index="0" speed="7.14" length="10.48" width="5.00" shape="592.50,114.00 592.09,111.16 590.88,109.12 588.84,107.91 586.00,107.50"/>
    </edge>
    <edge id=":C0_1" function="internal">
        <lane id=":C0_1_0" index="0" speed="13.89" length="28.00" width="5.00" shape="592.50,114.00 592.50,86.00"/>
        <lane id=":C0_1_1" index="1" speed="13.89" length="28.00" width="5.00" shape="597.50,114.00 597.50,86.00"/>
    </edge>
    <edge id=":C0_3" function="internal">
        <lane id=":C0_3_0" index="0" speed="10.89" length="8.28" width="5.00" shape="597.50,114.00 598.53,106.78 599.04,105.93"/>
    </edge>
    <edge id=":C0_16" function="internal">
        <lane id=":C0_16_0" index="0" speed="10.89" length="18.33" width="5.00" shape="599.04,105.93 601.62,101.62 606.78,98.53 614.00,97.50"/>
    </edge>
    <edge id=":C0_4" function="internal">
        <lane id=":C0_4_0" index="0" speed="7.14" length="10.48" width="5.00" shape="614.00,107.50 611.16,107.91 609.12,109.12 607.91,111.16 607.50,114.00"/>
    </edge>
    <edge id=":C0_5" function="internal">
        <lane id=":C0_5_0" index="0" speed="13.89" length="28.00" width="5.00" shape="614.00,107.50 586.00,107.50"/>
        <lane id=":C0_5_1" index="1" speed="13.89" length="28.00" width="5.00" shape="614.00,102.50 586.00,102.50"/>
    </edge>
    <edge id=":C0_7" function="internal">
        <lane id=":C0_7_0" index="0" speed="10.89" length="26.61" width="5.00" shape="614.00,102.50 606.78,101.47 601.62,98.38 598.53,93.22 597.50,86.00"/>
    </edge>
    <edge id=":C0_8" function="internal">
        <lane id=":C0_8_0" index="0" speed="7.14" length="10.48" width="5.00" shape="607.50,86.00 607.91,88.84 609.12,90.88 611.16,92.09 614.00,92.50"/>
    </edge>
    <edge id=":C0_9" function="internal">
        <lane id=":C0_9_0" index="0" speed="13.89" length="28.00" width="5.00" shape="607.50,86.00 607.50,114.00"/>
        <lane id=":C0_9_1" index="1" speed="13.89" length="28.00" width="5.00" shape="602.50,86.00 602.50,114.00"/>
    </edge>
    <edge id=":C0_11" function="internal">
        <lane id=":C0_11_0" index="0" speed="10.89" length="8.28" width="5.00" shape="602.50,86.00 601.47,93.22 600.96,94.07"/>
    </edge>
    <edge id=":C0_17" function="internal">
        <lane id=":C0_17_0" index="0" speed="10.89" length="18.33" width="5.00" shape="600.96,94.07 598.38,98.38 593.22,101.47 586.00,102.50"/>
    </edge>
    <edge id=":C0_12" function="internal">
        <lane id=":C0_12_0" index="0" speed="7.14" length="10.48" width="5.00" shape="586.00,92.50 588.84,92.09 590.88,90.88 592.09,88.84 592.50,86.00"/>
    </edge>
    <edge id=":C0_13" function="internal">
        <lane id=":C0_13_0" index="0" speed="13.89" length="28.00" width="5.00" shape="586.00,92.50 614.00,92.50"/>
        <lane id=":C0_13_1" index="1" speed="13.89" length="28.00" width="5.00" shape="586.00,97.50 614.00,97.50"/>
    </edge>
    <edge id=":C0_15" function="internal">
        <lane id=":C0_15_0" index="0" speed="10.89" length="26.61" width="5.00" shape="586.00,97.50 593.22,98.53 598.38,101.62 601.47,106.78 602.50,114.00"/>
    </edge>
    <edge id=":C1_0" function="internal">
        <lane id=":C1_0_0" index="0" speed="7.14" length="10.48" width="5.00" shape="592.50,614.00 592.09,611.16 590.88,609.12 588.84,607.91 586.00,607.50"/>
    </edge>
    <edge id=":C1_1" function="internal">
        <lane id=":C1_1_0" index="0" speed="13.89" length="28.00" width="5.00" shape="592.50,614.00 592.50,586.00"/>
        <lane id=":C1_1_1" index="1" speed="13.89" length="28.00" width="5.00" shape="597.50,614.00 597.50,586.00"/>
    </edge>
    <edge id=":C1_3" function="internal">
        <lane id=":C1_3_0" index="0" speed="10.89" length="8.28" width="5.00" shape="597.50,614.00 598.53,606.78 599.04,605.93"/>
    </edge>
    <edge id=":C1_16" function="internal">
        <lane id=":C1_16_0" index="0" speed="10.89" length="18.33" width="5.00" shape="599.04,605.93 601.62,601.62 606.78,598.53 614.00,597.50"/>
    </edge>
    <edge id=":C1_4" function="internal">
        <lane id=":C1_4_0" index="0" speed="7.14" length="10.48" width="5.00" shape="614.00,607.50 611.16,607.91 609.12,609.12 607.91,611.16 607.50,614.00"/>
    </edge>
    <edge id=":C1_5" function="internal">
        <lane id=":C1_5_0" index="0" speed="13.89" length="28.00" width="5.00" shape="614.00,607.50 586.00,607.50"/>
        <lane id=":C1_5_1" index="1" speed="13.89" length="28.00" width="5.00" shape="614.00,602.50 586.00,602.50"/>
    </edge>
    <edge id=":C1_7" function="internal">
        <lane id=":C1_7_0" index="0" speed="10.89" length="26.61" width="5.00" shape="614.00,602.50 606.78,601.47 601.62,598.38 598.53,593.22 597.50,586.00"/>
    </edge>
    <edge id=":C1_8" function="internal">
        <lane id=":C1_8_0" index="0" speed="7.14" length="10.48" width="5.00" shape="607.50,586.00 607.91,588.84 609.12,590.88 611.16,592.09 614.00,592.50"/>
    </edge>
    <edge id=":C1_9" function="internal">
        <lane id=":C1_9_0" index="0" speed="13.89" length="28.00" width="5.00" shape="607.50,586.00 607.50,614.00"/>
        <lane id=":C1_9_1" index="1" speed="13.89" length="28.00" width="5.00" shape="602.50,586.00 602.50,614.00"/>
    </edge>
    <edge id=":C1_11" function="internal">
        <lane id=":C1_11_0" index="0" speed="10.89" length="8.28" width="5.00" shape="602.50,586.00 601.47,593.22 600.96,594.07"/>
    </edge>
    <edge id=":C1_17" function="internal">
        <lane id=":C1_17_0" index="0" speed="10.89" length="18.33" width="5.00" shape="600.96,594.07 598.38,598.38 593.22,601.47 586.00,602.50"/>
    </edge>
    <edge id=":C1_12" function="internal">
        <lane id=":C1_12_0" index="0" speed="7.14" length="10.48" width="5.00" shape="586.00,592.50 588.84,592.09 590.88,590.88 592.09,588.84 592.50,586.00"/>
    </edge>
    <edge id=":C1_13" function="internal">
        <lane id=":C1_13_0" index="0" speed="13.89" length="28.00" width="5.00" shape="586.00,592.50 614.00,592.50"/>
        <lane id=":C1_13_1" index="1" speed="13.89" length="28.00" width="5.00" shape="586.00,597.50 614.00,597.50"/>
    </edge>
    <edge id=":C1_15" function="internal">
        <lane id=":C1_15_0" index="0" speed="10.89" length="26.61" width="5.00" shape="586.00,597.50 593.22,598.53 598.38,601.62 601.47,606.78 602.50,614.00"/>
    </edge>
    <edge id=":D0_0" function="internal">
        <lane id=":D0_0_0" index="0" speed="7.14" length="10.48" width="5.00" shape="842.50,114.00 842.09,111.16 840.88,109.12 838.84,107.91 836.00,107.50"/>
    </edge>
    <edge id=":D0_1" function="internal">
        <lane id=":D0_1_0" index="0" speed="13.89" length="28.00" width="5.00" shape="842.50,114.00 842.50,86.00"/>
        <lane id=":D0_1_1" index="1" speed="13.89" length="28.00" width="5.00" shape="847.50,114.00 847.50,86.00"/>
    </edge>
    <edge id=":D0_3" function="internal">
        <lane id=":D0_3_0" index="0" speed="10.89" length="8.28" width="5.00" shape="847.50,114.00 848.53,106.78 849.04,105.93"/>
    </edge>
    <edge id=":D0_16" function="internal">
        <lane id=":D0_16_0" index="0" speed="10.89" length="18.33" width="5.00" shape="849.04,105.93 851.62,101.62 856.78,98.53 864.00,97.50"/>
    </edge>
    <edge id=":D0_4" function="internal">
        <lane id=":D0_4_0" index="0" speed="7.14" length="10.48" width="5.00" shape="864.00,107.50 861.16,107.91 859.12,109.12 857.91,111.16 857.50,114.00"/>
    </edge>
    <edge id=":D0_5" function="internal">
        <lane id=":D0_5_0" index="0" speed="13.89" length="28.00" width="5.00" shape="864.00,107.50 836.00,107.50"/>
        <lane id=":D0_5_1" index="1" speed="13.89" length="28.00" width="5.00" shape="864.00,102.50 836.00,102.50"/>
    </edge>
    <edge id=":D0_7" function="internal">
        <lane id=":D0_7_0" index="0" speed="10.89" length="26.61" width="5.00" shape="864.00,102.50 856.78,101.47 851.62,98.38 848.53,93.22 847.50,86.00"/>
    </edge>
    <edge id=":D0_8" function="internal">
        <lane id=":D0_8_0" index="0" speed="7.14" length="10.48" width="5.00" shape="857.50,86.00 857.91,88.84 859.12,90.88 861.16,92.09 864.00,92.50"/>
    </edge>
    <edge id=":D0_9" function="internal">
        <lane id=":D0_9_0" index="0" speed="13.89" length="28.00" width="5.00" shape="857.50,86.00 857.50,114.00"/>
        <lane id=":D0_9_1" index="1" speed="13.89" length="28.00" width="5.00" shape="852.50,86.00 852.50,114.00"/>
    </edge>
    <edge id=":D0_11" function="internal">
        <lane id=":D0_11_0" index="0" speed="10.89" length="8.28" width="5.00" shape="852.50,86.00 851.47,93.22 850.96,94.07"/>
    </edge>
    <edge id=":D0_17" function="internal">
        <lane id=":D0_17_0" index="0" speed="10.89" length="18.33" width="5.00" shape="850.96,94.07 848.38,98.38 843.22,101.47 836.00,102.50"/>
    </edge>
    <edge id=":D0_12" function="internal">
        <lane id=":D0_12_0" index="0" speed="7.14" length="10.48" width="5.00" shape="836.00,92.50 838.84,92.09 840.88,90.88 842.09,88.84 842.50,86.00"/>
    </edge>
    <edge id=":D0_13" function="internal">
        <lane id=":D0_13_0" index="0" speed="13.89" length="28.00" width="5.00" shape="836.00,92.50 864.00,92.50"/>
        <lane id=":D0_13_1" index="1" speed="13.89" length="28.00" width="5.00" shape="836.00,97.50 864.00,97.50"/>
    </edge>
    <edge id=":D0_15" function="internal">
        <lane id=":D0_15_0" index="0" speed="10.89" length="26.61" width="5.00" shape="836.00,97.50 843.22,98.53 848.38,101.62 851.47,106.78 852.50,114.00"/>
    </edge>
    <edge id=":D1_0" function="internal">
        <lane id=":D1_0_0" index="0" speed="7.14" length="10.48" width="5.00" shape="842.50,614.00 842.09,611.16 840.88,609.12 838.84,607.91 836.00,607.50"/>
    </edge>
    <edge id=":D1_1" function="internal">
        <lane id=":D1_1_0" index="0" speed="13.89" length="28.00" width="5.00" shape="842.50,614.00 842.50,586.00"/>
        <lane id=":D1_1_1" index="1" speed="13.89" length="28.00" width="5.00" shape="847.50,614.00 847.50,586.00"/>
    </edge>
    <edge id=":D1_3" function="internal">
        <lane id=":D1_3_0" index="0" speed="10.89" length="8.28" width="5.00" shape="847.50,614.00 848.53,606.78 849.04,605.93"/>
    </edge>
    <edge id=":D1_16" function="internal">
        <lane id=":D1_16_0" index="0" speed="10.89" length="18.33" width="5.00" shape="849.04,605.93 851.62,601.62 856.78,598.53 864.00,597.50"/>
    </edge>
    <edge id=":D1_4" function="internal">
        <lane id=":D1_4_0" index="0" speed="7.14" length="10.48" width="5.00" shape="864.00,607.50 861.16,607.91 859.12,609.12 857.91,611.16 857.50,614.00"/>
    </edge>
    <edge id=":D1_5" function="internal">
        <lane id=":D1_5_0" index="0" speed="13.89" length="28.00" width="5.00" shape="864.00,607.50 836.00,607.50"/>
        <lane id=":D1_5_1" index="1" speed="13.89" length="28.00" width="5.00" shape="864.00,602.50 836.00,602.50"/>
    </edge>
    <edge id=":D1_7" function="internal">
        <lane id=":D1_7_0" index="0" speed="10.89" length="26.61" width="5.00" shape="864.00,602.50 856.78,601.47 851.62,598.38 848.53,593.22 847.50,586.00"/>
    </edge>
    <edge id=":D1_8" function="internal">
        <lane id=":D1_8_0" index="0" speed="7.14" length="10.48" width="5.00" shape="857.50,586.00 857.91,588.84 859.12,590.88 861.16,592.09 864.00,592.50"/>
    </edge>
    <edge id=":D1_9" function="internal">
        <lane id=":D1_9_0" index="0" speed="13.89" length="28.00" width="5.00" shape="857.50,586.00 857.50,614.00"/>
        <lane id=":D1_9_1" index="1" speed="13.89" length="28.00" width="5.00" shape="852.50,586.00 852.50,614.00"/>
    </edge>
    <edge id=":D1_11" function="internal">
        <lane id=":D1_11_0" index="0" speed="10.89" length="8.28" width="5.00" shape="852.50,586.00 851.47,593.22 850.96,594.07"/>
    </edge>
    <edge id=":D1_17" function="internal">
        <lane id=":D1_17_0" index="0" speed="10.89" length="18.33" width="5.00" shape="850.96,594.07 848.38,598.38 843.22,601.47 836.00,602.50"/>
    </edge>
    <edge id=":D1_12" function="internal">
        <lane id=":D1_12_0" index="0" speed="7.14" length="10.48" width="5.00" shape="836.00,592.50 838.84,592.09 840.88,590.88 842.09,588.84 842.50,586.00"/>
    </edge>
    <edge id=":D1_13" function="internal">
        <lane id=":D1_13_0" index="0" speed="13.89" length="28.00" width="5.00" shape="836.00,592.50 864.00,592.50"/>
        <lane id=":D1_13_1" index="1" speed="13.89" length="28.00" width="5.00" shape="836.00,597.50 864.00,597.50"/>
    </edge>
    <edge id=":D1_15" function="internal">