<?xml version="1.0" encoding="UTF-8"?>
<!-- generated on 2024-10-27 16:55:34.809657 by randomTrips.py UNKNOWN
  options: -n spider.net.xml -b 0 -e 3600 -p 15 -o motorcycle_trips.xml <doubleminus>vehicle-class=motorcycle <doubleminus>prefix=motorcycle
-->
<routes xmlns:xsi="http://www.w3.org/2001/XMLSchema-instance" xsi:noNamespaceSchemaLocation="http://sumo.dlr.de/xsd/routes_file.xsd">
    <vType id="motorcycle_motorcycle" vClass="motorcycle"/>
    <trip id="motorcycle0" depart="0.00" from="C5B5" to="B1B5" type="motorcycle_motorcycle"/>
    <trip id="motorcycle1" depart="15.00" from="B5B4" to="B4C4" type="motorcycle_motorcycle"/>
    <trip id="motorcycle2" depart="30.00" from="D1D2" to="C5C4" type="motorcycle_motorcycle"/>
    <trip id="motorcycle3" depart="45.00" from="D4C4" to="B2B3" type="motorcycle_motorcycle"/>
    <trip id="motorcycle4" depart="60.00" from="C2C3" to="B1B5" type="motorcycle_motorcycle"/>
    <trip id="motorcycle5" depart="75.00" from="B4B5" to="C3C4" type="motorcycle_motorcycle"/>
    <trip id="motorcycle6" depart="90.00" from="B1B5" to="B4B3" type="motorcycle_motorcycle"/>
    <trip id="motorcycle7" depart="105.00" from="C5C1" to="C4B4" type="motorcycle_motorcycle"/>
    <trip id="motorcycle8" depart="120.00" from="B4C4" to="C4C5" type="motorcycle_motorcycle"/>
    <trip id="motorcycle9" depart="135.00" from="D2D3" to="B1B2" type="motorcycle_motorcycle"/>
    <trip id="motorcycle10" depart="150.00" from="D2D3" to="C5D5" type="motorcycle_motorcycle"/>
    <trip id="motorcycle11" depart="165.00" from="C1C5" to="B3B4" type="motorcycle_motorcycle"/>
    <trip id="motorcycle12" depart="180.00" from="D5C5" to="C1C2" type="motorcycle_motorcycle"/>
    <trip id="motorcycle13" depart="195.00" from="B2B3" to="B2B3" type="motorcycle_motorcycle"/>
    <trip id="motorcycle14" depart="210.00" from="D3D2" to="C4D4" type="motorcycle_motorcycle"/>
    <trip id="motorcycle15" depart="225.00" from="D2D3" to="D1D2" type="motorcycle_motorcycle"/>
    <trip id="motorcycle16" depart="240.00" from="C3D3" to="D5D1" type="motorcycle_motorcycle"/>
    <trip id="motorcycle17" depart="255.00" from="C1D1" to="C4B4" type="motorcycle_motorcycle"/>
    <trip id="motorcycle18" depart="270.00" from="D3C3" to="C4D4" type="motorcycle_motorcycle"/>
    <trip id="motorcycle19" depart="285.00" from="D3D4" to="C4C3" type="motorcycle_motorcycle"/>
    <trip id="motorcycle20" depart="300.00" from="D1C1" to="B1C1" type="motorcycle_motorcycle"/>
    <trip id="motorcycle21" depart="315.00" from="B4C4" to="B5C5" type="motorcycle_motorcycle"/>
    <trip id="motorcycle22" depart="330.00" from="B2B1" to="B4C4" type="motorcycle_motorcycle"/>
    <trip id="motorcycle23" depart="345.00" from="B2C2" to="B5B4" type="motorcycle_motorcycle"/>
    <trip id="motorcycle24" depart="360.00" from="C5B5" to="C1D1" type="motorcycle_motorcycle"/>
    <trip id="motorcycle25" depart="375.00" from="C1D1" to="B4B5" type="motorcycle_motorcycle"/>
    <trip id="motorcycle26" depart="390.00" from="B5B4" to="D4D5" type="motorcycle_motorcycle"/>
    <trip id="motorcycle27" depart="405.00" from="C5C1" to="C4D4" type="motorcycle_motorcycle"/>
    <trip id="motorcycle28" depart="420.00" from="B3C3" to="D1D2" type="motorcycle_motorcycle"/>
    <trip id="motorcycle29" depart="435.00" from="B3C3" to="C1D1" type="motorcycle_motorcycle"/>
    <trip id="motorcycle30" depart="450.00" from="D5D4" to="C5B5" type="motorcycle_motorcycle"/>
    <trip id="motorcycle31" depart="465.00" from="C4B4" to="C5D5" type="motorcycle_motorcycle"/>
    <trip id="motorcycle32" depart="480.00" from="D3D2" to="D2C2" type="motorcycle_motorcycle"/>
    <trip id="motorcycle33" depart="495.00" from="B4C4" to="B1B5" type="motorcycle_motorcycle"/>
    <trip id="motorcycle34" depart="510.00" from="C1B1" to="B5B4" type="motorcycle_motorcycle"/>
    <trip id="motorcycle35" depart="525.00" from="B4B5" to="D5C5" type="motorcycle_motorcycle"/>
    <trip id="motorcycle36" depart="540.00" from="D3D4" to="C1B1" type="motorcycle_motorcycle"/>
    <trip id="motorcycle37" depart="555.00" from="C5C1" to="C2B2" type="motorcycle_motorcycle"/>
    <trip id="motorcycle38" depart="570.00" from="D4D3" to="C2D2" type="motorcycle_motorcycle"/>
    <trip id="motorcycle39" depart="585.00" from="B5B4" to="B5B1" type="motorcycle_motorcycle"/>
    <trip id="motorcycle40" depart="600.00" from="C4C3" to="B5B4" type="motorcycle_motorcycle"/>
    <trip id="motorcycle41" depart="615.00" from="C4C5" to="D4C4" type="motorcycle_motorcycle"/>
    <trip id="motorcycle42" depart="630.00" from="C2B2" to="B4B5" type="motorcycle_motorcycle"/>
    <trip id="motorcycle43" depart="645.00" from="D5D4" to="C3C4" type="motorcycle_motorcycle"/>
    <trip id="motorcycle44" depart="660.00" from="B2B3" to="B1C1" type="motorcycle_motorcycle"/>
    <trip id="motorcycle45" depart="675.00" from="B2C2" to="C5B5" type="motorcycle_motorcycle"/>
    <trip id="motorcycle46" depart="690.00" from="D2D1" to="C2C3" type="motorcycle_motorcycle"/>
    <trip id="motorcycle47" depart="705.00" from="B2B1" to="C2B2" type="motorcycle_motorcycle"/>
    <trip id="motorcycle48" depart="720.00" from="D5D4" to="C3D3" type="motorcycle_motorcycle"/>
    <trip id="motorcycle49" depart="735.00" from="D5D1" to="D3D4" type="motorcycle_motorcycle"/>
    <trip id="motorcycle50" depart="750.00" from="B1B2" to="D1D2" type="motorcycle_motorcycle"/>
    <trip id="motorcycle51" depart="765.00" from="C5D5" to="C3D3" type="motorcycle_motorcycle"/>
    <trip id="motorcycle52" depart="780.00" from="B5B4" to="C5C1" type="motorcycle_motorcycle"/>
    <trip id="motorcycle53" depart="795.00" from="B2C2" to="C2C3" type="motorcycle_motorcycle"/>
    <trip id="motorcycle54" depart="810.00" from="C2D2" to="D5C5" type="motorcycle_motorcycle"/>
    <trip id="motorcycle55" depart="825.00" from="D3D4" to="B5B4" type="motorcycle_motorcycle"/>
    <trip id="motorcycle56" depart="840.00" from="C3C4" to="B3C3" type="motorcycle_motorcycle"/>
    <trip id="motorcycle57" depart="855.00" from="D4D3" to="D3D4" type="motorcycle_motorcycle"/>
    <trip id="motorcycle58" depart="870.00" from="B5C5" to="C5B5" type="motorcycle_motorcycle"/>
    <trip id="motorcycle59" depart="885.00" from="C4D4" to="B3B4" type="motorcycle_motorcycle"/>
    <trip id="motorcycle60" depart="900.00" from="D2C2" to="C3D3" type="motorcycle_motorcycle"/>
    <trip id="motorcycle61" depart="915.00" from="D2C2" to="C3D3" type="motorcycle_motorcycle"/>
    <trip id="motorcycle62" depart="930.00" from="B1B2" to="C1C2" type="motorcycle_motorcycle"/>
    <trip id="motorcycle63" depart="945.00" from="B1B2" to="D4D5" type="motorcycle_motorcycle"/>
    <trip id="motorcycle64" depart="960.00" from="D3D4" to="D3C3" type="motorcycle_motorcycle"/>
    <trip id="motorcycle65" depart="975.00" from="C1B1" to="B1C1" type="motorcycle_motorcycle"/>
    <trip id="motorcycle66" depart="990.00" from="D3D4" to="D5C5" type="motorcycle_motorcycle"/>
    <trip id="motorcycle67" depart="1005.00" from="B2B3" to="C3C2" type="motorcycle_motorcycle"/>
    <trip id="motorcycle68" depart="1020.00" from="B2B1" to="D2C2" type="motorcycle_motorcycle"/>
    <trip id="motorcycle69" depart="1035.00" from="D2C2" to="B3B2" type="motorcycle_motorcycle"/>
    <trip id="motorcycle70" depart="1050.00" from="C3B3" to="C4B4" type="motorcycle_motorcycle"/>
    <trip id="motorcycle71" depart="1065.00" from="B5B4" to="D3D4" type="motorcycle_motorcycle"/>
    <trip id="motorcycle72" depart="1080.00" from="C2C3" to="B4B5" type="motorcycle_motorcycle"/>
    <trip id="motorcycle73" depart="1095.00" from="C3D3" to="D1D2" type="motorcycle_motorcycle"/>
    <trip id="motorcycle74" depart="1110.00" from="B4B5" to="C1B1" type="motorcycle_motorcycle"/>
    <trip id="motorcycle75" depart="1125.00" from="D5D4" to="C5C1" type="motorcycle_motorcycle"/>
    <trip id="motorcycle76" depart="1140.00" from="C2C3" to="C3C4" type="motorcycle_motorcycle"/>
    <trip id="motorcycle77" depart="1155.00" from="B3B2" to="B4C4" type="motorcycle_motorcycle"/>
    <trip id="motorcycle78" depart="1170.00" from="C1C2" to="C4C5" type="motorcycle_motorcycle"/>
    <trip id="motorcycle79" depart="1185.00" from="B4C4" to="B4C4" type="motorcycle_motorcycle"/>
    <trip id="motorcycle80" depart="1200.00" from="B2B1" to="C5B5" type="motorcycle_motorcycle"/>
    <trip id="motorcycle81" depart="1215.00" from="B4C4" to="D4D3" type="motorcycle_motorcycle"/>
    <trip id="motorcycle82" depart="1230.00" from="D3D2" to="B2B1" type="motorcycle_motorcycle"/>
    <trip id="motorcycle83" depart="1245.00" from="B4C4" to="C5C4" type="motorcycle_motorcycle"/>
    <trip id="motorcycle84" depart="1260.00" from="B4B5" to="B3B2" type="motorcycle_motorcycle"/>
    <trip id="motorcycle85" depart="1275.00" from="D4D5" to="C4C3" type="motorcycle_motorcycle"/>
    <trip id="motorcycle86" depart="1290.00" from="C3B3" to="D2D1" type="motorcycle_motorcycle"/>
    <trip id="motorcycle87" depart="1305.00" from="D2D3" to="B4B3" type="motorcycle_motorcycle"/>
    <trip id="motorcycle88" depart="1320.00" from="B2B3" to="C2C3" type="motorcycle_motorcycle"/>
    <trip id="motorcycle89" depart="1335.00" from="C2C3" to="C3B3" type="motorcycle_motorcycle"/>
    <trip id="motorcycle90" depart="1350.00" from="D1D2" to="C5C4" type="motorcycle_motorcycle"/>
    <trip id="motorcycle91" depart="1365.00" from="D5D4" to="B2B3" type="motorcycle_motorcycle"/>
    <trip id="motorcycle92" depart="1380.00" from="C2C1" to="C1C2" type="motorcycle_motorcycle"/>
    <trip id="motorcycle93" depart="1395.00" from="D3D4" to="B5B1" type="motorcycle_motorcycle"/>
    <trip id="motorcycle94" depart="1410.00" from="B4B3" to="C2D2" type="motorcycle_motorcycle"/>
    <trip id="motorcycle95" depart="1425.00" from="C2C3" to="B5B4" type="motorcycle_motorcycle"/>
    <trip id="motorcycle96" depart="1440.00" from="B5B1" to="D4D5" type="motorcycle_motorcycle"/>
    <trip id="motorcycle97" depart="1455.00" from="C2D2" to="D3D4" type="motorcycle_motorcycle"/>
    <trip id="motorcycle98" depart="1470.00" from="C4B4" to="B1C1" type="motorcycle_motorcycle"/>
    <trip id="motorcycle99" depart="1485.00" from="D5D4" to="D3C3" type="motorcycle_motorcycle"/>
    <trip id="motorcycle100" depart="1500.00" from="D5D1" to="D4D5" type="motorcycle_motorcycle"/>
    <trip id="motorcycle101" depart="1515.00" from="D3D2" to="B3C3" type="motorcycle_motorcycle"/>
    <trip id="motorcycle102" depart="1530.00" from="C3C2" to="B4B5" type="motorcycle_motorcycle"/>
    <trip id="motorcycle103" depart="1545.00" from="C2C1" to="B1C1" type="motorcycle_motorcycle"/>
    <trip id="motorcycle104" depart="1560.00" from="C1D1" to="D5D4" type="motorcycle_motorcycle"/>
    <trip id="motorcycle105" depart="1575.00" from="B5B4" to="D2D1" type="motorcycle_motorcycle"/>
    <trip id="motorcycle106" depart="1590.00" from="C2D2" to="C2C3" type="motorcycle_motorcycle"/>
    <trip id="motorcycle107" depart="1605.00" from="D5C5" to="D5D4" type="motorcycle_motorcycle"/>
    <trip id="motorcycle108" depart="1620.00" from="C4B4" to="D1C1" type="motorcycle_motorcycle"/>
    <trip id="motorcycle109" depart="1635.00" from="B3B4" to="B5C5" type="motorcycle_motorcycle"/>
    <trip id="motorcycle110" depart="1650.00" from="D5D1" to="C4C3" type="motorcycle_motorcycle"/>
    <trip id="motorcycle111" depart="1665.00" from="C4B4" to="D1D5" type="motorcycle_motorcycle"/>
    <trip id="motorcycle112" depart="1680.00" from="B1C1" to="C4C5" type="motorcycle_motorcycle"/>
    <trip id="motorcycle113" depart="1695.00" from="C3C4" to="D3D2" type="motorcycle_motorcycle"/>
    <trip id="motorcycle114" depart="1710.00" from="B3B4" to="D5D1" type="motorcycle_motorcycle"/>
    <trip id="motorcycle115" depart="1725.00" from="B2B3" to="B4B3" type="motorcycle_motorcycle"/>
    <trip id="motorcycle116" depart="1740.00" from="C4C5" to="C5C4" type="motorcycle_motorcycle"/>
    <trip id="motorcycle117" depart="1755.00" from="B4C4" to="B2C2" type="motorcycle_motorcycle"/>
    <trip id="motorcycle118" depart="1770.00" from="D4C4" to="B5B1" type="motorcycle_motorcycle"/>
    <trip id="motorcycle119" depart="1785.00" from="C4C5" to="C4D4" type="motorcycle_motorcycle"/>
    <trip id="motorcycle120" depart="1800.00" from="C2C1" to="C4C5" type="motorcycle_motorcycle"/>
    <trip id="motorcycle121" depart="1815.00" from="C3D3" to="D4D5" type="motorcycle_motorcycle"/>
    <trip id="motorcycle122" depart="1830.00" from="B4B5" to="D1C1" type="motorcycle_motorcycle"/>
    <trip id="motorcycle123" depart="1845.00" from="B4C4" to="C2B2" type="motorcycle_motorcycle"/>
    <trip id="motorcycle124" depart="1860.00" from="C5C4" to="B5C5" type="motorcycle_motorcycle"/>
    <trip id="motorcycle125" depart="1875.00" from="C1B1" to="D1D5" type="motorcycle_motorcycle"/>
    <trip id="motorcycle126" depart="1890.00" from="B2B1" to="C2D2" type="motorcycle_motorcycle"/>
    <trip id="motorcycle127" depart="1905.00" from="D5D4" to="D5D4" type="motorcycle_motorcycle"/>
    <trip id="motorcycle128" depart="1920.00" from="B2B1" to="B4B5" type="motorcycle_motorcycle"/>
    <trip id="motorcycle129" depart="1935.00" from="B5B4" to="D4D5" type="motorcycle_motorcycle"/>
    <trip id="motorcycle130" depart="1950.00" from="D4C4" to="D3D4" type="motorcycle_motorcycle"/>
    <trip id="motorcycle131" depart="1965.00" from="C1D1" to="B3B4" type="motorcycle_motorcycle"/>
    <trip id="motorcycle132" depart="1980.00" from="D3C3" to="D1C1" type="motorcycle_motorcycle"/>
    <trip id="motorcycle133" depart="1995.00" from="C4D4" to="D5D4" type="motorcycle_motorcycle"/>
    <trip id="motorcycle134" depart="2010.00" from="C5C1" to="B1B2" type="motorcycle_motorcycle"/>
    <trip id="motorcycle135" depart="2025.00" from="D2D3" to="B5C5" type="motorcycle_motorcycle"/>
    <trip id="motorcycle136" depart="2040.00" from="C5C4" to="D4D5" type="motorcycle_motorcycle"/>
    <trip id="motorcycle137" depart="2055.00" from="B3B2" to="B2C2" type="motorcycle_motorcycle"/>
    <trip id="motorcycle138" depart="2070.00" from="B2C2" to="C4B4" type="motorcycle_motorcycle"/>
    <trip id="motorcycle139" depart="2085.00" from="B5B4" to="C4D4" type="motorcycle_motorcycle"/>
    <trip id="motorcycle140" depart="2100.00" from="D1C1" to="B4B5" type="motorcycle_motorcycle"/>
    <trip id="motorcycle141" depart="2115.00" from="C5B5" to="B5B4" type="motorcycle_motorcycle"/>
    <trip id="motorcycle142" depart="2130.00" from="C3C2" to="D4D3" type="motorcycle_motorcycle"/>
    <trip id="motorcycle143" depart="2145.00" from="D3D2" to="B2B3" type="motorcycle_motorcycle"/>
    <trip id="motorcycle144" depart="2160.00" from="C2C3" to="B5B4" type="motorcycle_motorcycle"/>
    <trip id="motorcycle145" depart="2175.00" from="B1B2" to="D2C2" type="motorcycle_motorcycle"/>
    <trip id="motorcycle146" depart="2190.00" from="C5B5" to="B5B4" type="motorcycle_motorcycle"/>
    <trip id="motorcycle147" depart="2205.00" from="D1D5" to="C4B4" type="motorcycle_motorcycle"/>
    <trip id="motorcycle148" depart="2220.00" from="C2C3" to="B1B2" type="motorcycle_motorcycle"/>
    <trip id="motorcycle149" depart="2235.00" from="B2B1" to="D4C4" type="motorcycle_motorcycle"/>
    <trip id="motorcycle150" depart="2250.00" from="D4D3" to="C4B4" type="motorcycle_motorcycle"/>
    <trip id="motorcycle151" depart="2265.00" from="D3C3" to="C4C5" type="motorcycle_motorcycle"/>
    <trip id="motorcycle152" depart="2280.00" from="B3B4" to="B3B2" type="motorcycle_motorcycle"/>
    <trip id="motorcycle153" depart="2295.00" from="C1B1" to="D4C4" type="motorcycle_motorcycle"/>
    <trip id="motorcycle154" depart="2310.00" from="D2D1" to="D3D4" type="motorcycle_motorcycle"/>
    <trip id="motorcycle155" depart="2325.00" from="D4C4" to="B4B5" type="motorcycle_motorcycle"/>
    <trip id="motorcycle156" depart="2340.00" from="B5B1" to="B2C2" type="motorcycle_motorcycle"/>
    <trip id="motorcycle157" depart="2355.00" from="D2D1" to="D4C4" type="motorcycle_motorcycle"/>
    <trip id="motorcycle158" depart="2370.00" from="C2C1" to="C5B5" type="motorcycle_motorcycle"/>
    <trip id="motorcycle159" depart="2385.00" from="B3B4" to="D4D5" type="motorcycle_motorcycle"/>
    <trip id="motorcycle160" depart="2400.00" from="D3D4" to="D5D1" type="motorcycle_motorcycle"/>
    <trip id="motorcycle161" depart="2415.00" from="D2D3" to="D4C4" type="motorcycle_motorcycle"/>
    <trip id="motorcycle162" depart="2430.00" from="B1B5" to="D1D2" type="motorcycle_motorcycle"/>
    <trip id="motorcycle163" depart="2445.00" from="C1C2" to="D4D5" type="motorcycle_motorcycle"/>
    <trip id="motorcycle164" depart="2460.00" from="D2D3" to="D3D4" type="motorcycle_motorcycle"/>
    <trip id="motorcycle165" depart="2475.00" from="D2D3" to="B5B4" type="motorcycle_motorcycle"/>
    <trip id="motorcycle166" depart="2490.00" from="D2D1" to="B2C2" type="motorcycle_motorcycle"/>
    <trip id="motorcycle167" depart="2505.00" from="D3D4" to="D3D2" type="motorcycle_motorcycle"/>
    <trip id="motorcycle168" depart="2520.00" from="B4C4" to="D2D3" type="motorcycle_motorcycle"/>
    <trip id="motorcycle169" depart="2535.00" from="C3B3" to="C1B1" type="motorcycle_motorcycle"/>
    <trip id="motorcycle170" depart="2550.00" from="D2D1" to="B4C4" type="motorcycle_motorcycle"/>
    <trip id="motorcycle171" depart="2565.00" from="B1B5" to="B4B3" type="motorcycle_motorcycle"/>
    <trip id="motorcycle172" depart="2580.00" from="C1C2" to="D3D4" type="motorcycle_motorcycle"/>
    <trip id="motorcycle173" depart="2595.00" from="D5D1" to="B5B4" type="motorcycle_motorcycle"/>
    <trip id="motorcycle174" depart="2610.00" from="C5C1" to="C2B2" type="motorcycle_motorcycle"/>
    <trip id="motorcycle175" depart="2625.00" from="D5D4" to="C3D3" type="motorcycle_motorcycle"/>
    <trip id="motorcycle176" depart="2640.00" from="D4D5" to="B2C2" type="motorcycle_motorcycle"/>
    <trip id="motorcycle177" depart="2655.00" from="D5D1" to="B3C3" type="motorcycle_motorcycle"/>
    <trip id="motorcycle178" depart="2670.00" from="D5D1" to="B5B4" type="motorcycle_motorcycle"/>
    <trip id="motorcycle179" depart="2685.00" from="B2C2" to="C2C3" type="motorcycle_motorcycle"/>
    <trip id="motorcycle180" depart="2700.00" from="D1D2" to="C1B1" type="motorcycle_motorcycle"/>
    <trip id="motorcycle181" depart="2715.00" from="C4D4" to="C3C4" type="motorcycle_motorcycle"/>
    <trip id="motorcycle182" depart="2730.00" from="C2B2" to="C4C3" type="motorcycle_motorcycle"/>
    <trip id="motorcycle183" depart="2745.00" from="B5B1" to="D1C1" type="motorcycle_motorcycle"/>
    <trip id="motorcycle184" depart="2760.00" from="B1B2" to="D4D5" type="motorcycle_motorcycle"/>
    <trip id="motorcycle185" depart="2775.00" from="C3D3" to="D1C1" type="motorcycle_motorcycle"/>
    <trip id="motorcycle186" depart="2790.00" from="D1D5" to="C5C4" type="motorcycle_motorcycle"/>
    <trip id="motorcycle187" depart="2805.00" from="C1D1" to="B2B1" type="motorcycle_motorcycle"/>
    <trip id="motorcycle188" depart="2820.00" from="C5C4" to="C1C2" type="motorcycle_motorcycle"/>
    <trip id="motorcycle189" depart="2835.00" from="C1B1" to="D3D2" type="motorcycle_motorcycle"/>
    <trip id="motorcycle190" depart="2850.00" from="D1C1" to="C1B1" type="motorcycle_motorcycle"/>
    <trip id="motorcycle191" depart="2865.00" from="C1B1" to="C2C1" type="motorcycle_motorcycle"/>
    <trip id="motorcycle192" depart="2880.00" from="C2C1" to="B5C5" type="motorcycle_motorcycle"/>
    <trip id="motorcycle193" depart="2895.00" from="B3B2" to="C2C3" type="motorcycle_motorcycle"/>
    <trip id="motorcycle194" depart="2910.00" from="D5C5" to="C5C4" type="motorcycle_motorcycle"/>
    <trip id="motorcycle195" depart="2925.00" from="D4D3" to="C4D4" type="motorcycle_motorcycle"/>
    <trip id="motorcycle196" depart="2940.00" from="C1B1" to="C4B4" type="motorcycle_motorcycle"/>
    <trip id="motorcycle197" depart="2955.00" from="B1B2" to="B5C5" type="motorcycle_motorcycle"/>
    <trip id="motorcycle198" depart="2970.00" from="C2C3" to="C4C3" type="motorcycle_motorcycle"/>
    <trip id="motorcycle199" depart="2985.00" from="C5C1" to="C3B3" type="motorcycle_motorcycle"/>
    <trip id="motorcycle200" depart="3000.00" from="C2D2" to="B4B5" type="motorcycle_motorcycle"/>
    <trip id="motorcycle201" depart="3015.00" from="C3B3" to="D4D3" type="motorcycle_motorcycle"/>
    <trip id="motorcycle202" depart="3030.00" from="D2D1" to="B3C3" type="motorcycle_motorcycle"/>
    <trip id="motorcycle203" depart="3045.00" from="B2B3" to="C3C4" type="motorcycle_motorcycle"/>
    <trip id="motorcycle204" depart="3060.00" from="C5B5" to="C1C2" type="motorcycle_motorcycle"/>
    <trip id="motorcycle205" depart="3075.00" from="D2D3" to="D1D5" type="motorcycle_motorcycle"/>
    <trip id="motorcycle206" depart="3090.00" from="C5C4" to="B4C4" type="motorcycle_motorcycle"/>
    <trip id="motorcycle207" depart="3105.00" from="B4B3" to="B1B5" type="motorcycle_motorcycle"/>
    <trip id="motorcycle208" depart="3120.00" from="B5B1" to="C3B3" type="motorcycle_motorcycle"/>
    <trip id="motorcycle209" depart="3135.00" from="D3D2" to="B2B1" type="motorcycle_motorcycle"/>
    <trip id="motorcycle210" depart="3150.00" from="C2C1" to="C5B5" type="motorcycle_motorcycle"/>
    <trip id="motorcycle211" depart="3165.00" from="B4B3" to="C5D5" type="motorcycle_motorcycle"/>
    <trip id="motorcycle212" depart="3180.00" from="C3C2" to="B5B1" type="motorcycle_motorcycle"/>
    <trip id="motorcycle213" depart="3195.00" from="C5C1" to="B1B2" type="motorcycle_motorcycle"/>
    <trip id="motorcycle214" depart="3210.00" from="D1D5" to="D2C2" type="motorcycle_motorcycle"/>
    <trip id="motorcycle215" depart="3225.00" from="B2C2" to="C2C3" type="motorcycle_motorcycle"/>
    <trip id="motorcycle216" depart="3240.00" from="B3C3" to="D5C5" type="motorcycle_motorcycle"/>
    <trip id="motorcycle217" depart="3255.00" from="C3C4" to="B1C1" type="motorcycle_motorcycle"/>
    <trip id="motorcycle218" depart="3270.00" from="B5B1" to="D3D2" type="motorcycle_motorcycle"/>
    <trip id="motorcycle219" depart="3285.00" from="C2D2" to="D2D3" type="motorcycle_motorcycle"/>
    <trip id="motorcycle220" depart="3300.00" from="C5C4" to="D5D4" type="motorcycle_motorcycle"/>
    <trip id="motorcycle221" depart="3315.00" from="C4C5" to="D5C5" type="motorcycle_motorcycle"/>
    <trip id="motorcycle222" depart="3330.00" from="D4C4" to="C4D4" type="motorcycle_motorcycle"/>
    <trip id="motorcycle223" depart="3345.00" from="D1C1" to="C3C4" type="motorcycle_motorcycle"/>
    <trip id="motorcycle224" depart="3360.00" from="D3C3" to="C4B4" type="motorcycle_motorcycle"/>
    <trip id="motorcycle225" depart="3375.00" from="D4C4" to="D1D5" type="motorcycle_motorcycle"/>
    <trip id="motorcycle226" depart="3390.00" from="C3B3" to="B5B1" type="motorcycle_motorcycle"/>
    <trip id="motorcycle227" depart="3405.00" from="B5B1" to="C5B5" type="motorcycle_motorcycle"/>
    <trip id="motorcycle228" depart="3420.00" from="D2C2" to="C3D3" type="motorcycle_motorcycle"/>
    <trip id="motorcycle229" depart="3435.00" from="C5B5" to="B5B4" type="motorcycle_motorcycle"/>
    <trip id="motorcycle230" depart="3450.00" from="B2B1" to="B5C5" type="motorcycle_motorcycle"/>
    <trip id="motorcycle231" depart="3465.00" from="B5B4" to="C1B1" type="motorcycle_motorcycle"/>
    <trip id="motorcycle232" depart="3480.00" from="C4B4" to="B3B2" type="motorcycle_motorcycle"/>
    <trip id="motorcycle233" depart="3495.00" from="B4C4" to="C5D5" type="motorcycle_motorcycle"/>
    <trip id="motorcycle234" depart="3510.00" from="D1C1" to="B2B1" type="motorcycle_motorcycle"/>
    <trip id="motorcycle235" depart="3525.00" from="C2C1" to="C4B4" type="motorcycle_motorcycle"/>
    <trip id="motorcycle236" depart="3540.00" from="C2C1" to="B4B5" type="motorcycle_motorcycle"/>
    <trip id="motorcycle237" depart="3555.00" from="C2C3" to="D4D3" type="motorcycle_motorcycle"/>
    <trip id="motorcycle238" depart="3570.00" from="C4C5" to="C5D5" type="motorcycle_motorcycle"/>
    <trip id="motorcycle239" depart="3585.00" from="D3D2" to="D2C2" type="motorcycle_motorcycle"/>
</routes>
