<?xml version="1.0" encoding="UTF-8"?>
<!-- generated on 2024-10-27 16:55:07.530889 by randomTrips.py UNKNOWN
  options: -n spider.net.xml -b 0 -e 3600 -p 10 -o passenger_trips.xml <doubleminus>vehicle-class=passenger <doubleminus>prefix=passenger
-->
<routes xmlns:xsi="http://www.w3.org/2001/XMLSchema-instance" xsi:noNamespaceSchemaLocation="http://sumo.dlr.de/xsd/routes_file.xsd">
    <vType id="passenger_passenger" vClass="passenger"/>
    <trip id="passenger0" depart="0.00" from="C5B5" to="B1B5" type="passenger_passenger"/>
    <trip id="passenger1" depart="10.00" from="B5B4" to="B4C4" type="passenger_passenger"/>
    <trip id="passenger2" depart="20.00" from="D1D2" to="C5C4" type="passenger_passenger"/>
    <trip id="passenger3" depart="30.00" from="D4C4" to="B2B3" type="passenger_passenger"/>
    <trip id="passenger4" depart="40.00" from="C2C3" to="B1B5" type="passenger_passenger"/>
    <trip id="passenger5" depart="50.00" from="B4B5" to="C3C4" type="passenger_passenger"/>
    <trip id="passenger6" depart="60.00" from="B1B5" to="B4B3" type="passenger_passenger"/>
    <trip id="passenger7" depart="70.00" from="C5C1" to="C4B4" type="passenger_passenger"/>
    <trip id="passenger8" depart="80.00" from="B4C4" to="C4C5" type="passenger_passenger"/>
    <trip id="passenger9" depart="90.00" from="D2D3" to="B1B2" type="passenger_passenger"/>
    <trip id="passenger10" depart="100.00" from="D2D3" to="C5D5" type="passenger_passenger"/>
    <trip id="passenger11" depart="110.00" from="C1C5" to="B3B4" type="passenger_passenger"/>
    <trip id="passenger12" depart="120.00" from="D5C5" to="C1C2" type="passenger_passenger"/>
    <trip id="passenger13" depart="130.00" from="B2B3" to="B2B3" type="passenger_passenger"/>
    <trip id="passenger14" depart="140.00" from="D3D2" to="C4D4" type="passenger_passenger"/>
    <trip id="passenger15" depart="150.00" from="D2D3" to="D1D2" type="passenger_passenger"/>
    <trip id="passenger16" depart="160.00" from="C3D3" to="D5D1" type="passenger_passenger"/>
    <trip id="passenger17" depart="170.00" from="C1D1" to="C4B4" type="passenger_passenger"/>
    <trip id="passenger18" depart="180.00" from="D3C3" to="C4D4" type="passenger_passenger"/>
    <trip id="passenger19" depart="190.00" from="D3D4" to="C4C3" type="passenger_passenger"/>
    <trip id="passenger20" depart="200.00" from="D1C1" to="B1C1" type="passenger_passenger"/>
    <trip id="passenger21" depart="210.00" from="B4C4" to="B5C5" type="passenger_passenger"/>
    <trip id="passenger22" depart="220.00" from="B2B1" to="B4C4" type="passenger_passenger"/>
    <trip id="passenger23" depart="230.00" from="B2C2" to="B5B4" type="passenger_passenger"/>
    <trip id="passenger24" depart="240.00" from="C5B5" to="C1D1" type="passenger_passenger"/>
    <trip id="passenger25" depart="250.00" from="C1D1" to="B4B5" type="passenger_passenger"/>
    <trip id="passenger26" depart="260.00" from="B5B4" to="D4D5" type="passenger_passenger"/>
    <trip id="passenger27" depart="270.00" from="C5C1" to="C4D4" type="passenger_passenger"/>
    <trip id="passenger28" depart="280.00" from="B3C3" to="D1D2" type="passenger_passenger"/>
    <trip id="passenger29" depart="290.00" from="B3C3" to="C1D1" type="passenger_passenger"/>
    <trip id="passenger30" depart="300.00" from="D5D4" to="C5B5" type="passenger_passenger"/>
    <trip id="passenger31" depart="310.00" from="C4B4" to="C5D5" type="passenger_passenger"/>
    <trip id="passenger32" depart="320.00" from="D3D2" to="D2C2" type="passenger_passenger"/>
    <trip id="passenger33" depart="330.00" from="B4C4" to="B1B5" type="passenger_passenger"/>
    <trip id="passenger34" depart="340.00" from="C1B1" to="B5B4" type="passenger_passenger"/>
    <trip id="passenger35" depart="350.00" from="B4B5" to="D5C5" type="passenger_passenger"/>
    <trip id="passenger36" depart="360.00" from="D3D4" to="C1B1" type="passenger_passenger"/>
    <trip id="passenger37" depart="370.00" from="C5C1" to="C2B2" type="passenger_passenger"/>
    <trip id="passenger38" depart="380.00" from="D4D3" to="C2D2" type="passenger_passenger"/>
    <trip id="passenger39" depart="390.00" from="B5B4" to="B5B1" type="passenger_passenger"/>
    <trip id="passenger40" depart="400.00" from="C4C3" to="B5B4" type="passenger_passenger"/>
    <trip id="passenger41" depart="410.00" from="C4C5" to="D4C4" type="passenger_passenger"/>
    <trip id="passenger42" depart="420.00" from="C2B2" to="B4B5" type="passenger_passenger"/>
    <trip id="passenger43" depart="430.00" from="D5D4" to="C3C4" type="passenger_passenger"/>
    <trip id="passenger44" depart="440.00" from="B2B3" to="B1C1" type="passenger_passenger"/>
    <trip id="passenger45" depart="450.00" from="B2C2" to="C5B5" type="passenger_passenger"/>
    <trip id="passenger46" depart="460.00" from="D2D1" to="C2C3" type="passenger_passenger"/>
    <trip id="passenger47" depart="470.00" from="B2B1" to="C2B2" type="passenger_passenger"/>
    <trip id="passenger48" depart="480.00" from="D5D4" to="C3D3" type="passenger_passenger"/>
    <trip id="passenger49" depart="490.00" from="D5D1" to="D3D4" type="passenger_passenger"/>
    <trip id="passenger50" depart="500.00" from="B1B2" to="D1D2" type="passenger_passenger"/>
    <trip id="passenger51" depart="510.00" from="C5D5" to="C3D3" type="passenger_passenger"/>
    <trip id="passenger52" depart="520.00" from="B5B4" to="C5C1" type="passenger_passenger"/>
    <trip id="passenger53" depart="530.00" from="B2C2" to="C2C3" type="passenger_passenger"/>
    <trip id="passenger54" depart="540.00" from="C2D2" to="D5C5" type="passenger_passenger"/>
    <trip id="passenger55" depart="550.00" from="D3D4" to="B5B4" type="passenger_passenger"/>
    <trip id="passenger56" depart="560.00" from="C3C4" to="B3C3" type="passenger_passenger"/>
    <trip id="passenger57" depart="570.00" from="D4D3" to="D3D4" type="passenger_passenger"/>
    <trip id="passenger58" depart="580.00" from="B5C5" to="C5B5" type="passenger_passenger"/>
    <trip id="passenger59" depart="590.00" from="C4D4" to="B3B4" type="passenger_passenger"/>
    <trip id="passenger60" depart="600.00" from="D2C2" to="C3D3" type="passenger_passenger"/>
    <trip id="passenger61" depart="610.00" from="D2C2" to="C3D3" type="passenger_passenger"/>
    <trip id="passenger62" depart="620.00" from="B1B2" to="C1C2" type="passenger_passenger"/>
    <trip id="passenger63" depart="630.00" from="B1B2" to="D4D5" type="passenger_passenger"/>
    <trip id="passenger64" depart="640.00" from="D3D4" to="D3C3" type="passenger_passenger"/>
    <trip id="passenger65" depart="650.00" from="C1B1" to="B1C1" type="passenger_passenger"/>
    <trip id="passenger66" depart="660.00" from="D3D4" to="D5C5" type="passenger_passenger"/>
    <trip id="passenger67" depart="670.00" from="B2B3" to="C3C2" type="passenger_passenger"/>
    <trip id="passenger68" depart="680.00" from="B2B1" to="D2C2" type="passenger_passenger"/>
    <trip id="passenger69" depart="690.00" from="D2C2" to="B3B2" type="passenger_passenger"/>
    <trip id="passenger70" depart="700.00" from="C3B3" to="C4B4" type="passenger_passenger"/>
    <trip id="passenger71" depart="710.00" from="B5B4" to="D3D4" type="passenger_passenger"/>
    <trip id="passenger72" depart="720.00" from="C2C3" to="B4B5" type="passenger_passenger"/>
    <trip id="passenger73" depart="730.00" from="C3D3" to="D1D2" type="passenger_passenger"/>
    <trip id="passenger74" depart="740.00" from="B4B5" to="C1B1" type="passenger_passenger"/>
    <trip id="passenger75" depart="750.00" from="D5D4" to="C5C1" type="passenger_passenger"/>
    <trip id="passenger76" depart="760.00" from="C2C3" to="C3C4" type="passenger_passenger"/>
    <trip id="passenger77" depart="770.00" from="B3B2" to="B4C4" type="passenger_passenger"/>
    <trip id="passenger78" depart="780.00" from="C1C2" to="C4C5" type="passenger_passenger"/>
    <trip id="passenger79" depart="790.00" from="B4C4" to="B4C4" type="passenger_passenger"/>
    <trip id="passenger80" depart="800.00" from="B2B1" to="C5B5" type="passenger_passenger"/>
    <trip id="passenger81" depart="810.00" from="B4C4" to="D4D3" type="passenger_passenger"/>
    <trip id="passenger82" depart="820.00" from="D3D2" to="B2B1" type="passenger_passenger"/>
    <trip id="passenger83" depart="830.00" from="B4C4" to="C5C4" type="passenger_passenger"/>
    <trip id="passenger84" depart="840.00" from="B4B5" to="B3B2" type="passenger_passenger"/>
    <trip id="passenger85" depart="850.00" from="D4D5" to="C4C3" type="passenger_passenger"/>
    <trip id="passenger86" depart="860.00" from="C3B3" to="D2D1" type="passenger_passenger"/>
    <trip id="passenger87" depart="870.00" from="D2D3" to="B4B3" type="passenger_passenger"/>
    <trip id="passenger88" depart="880.00" from="B2B3" to="C2C3" type="passenger_passenger"/>
    <trip id="passenger89" depart="890.00" from="C2C3" to="C3B3" type="passenger_passenger"/>
    <trip id="passenger90" depart="900.00" from="D1D2" to="C5C4" type="passenger_passenger"/>
    <trip id="passenger91" depart="910.00" from="D5D4" to="B2B3" type="passenger_passenger"/>
    <trip id="passenger92" depart="920.00" from="C2C1" to="C1C2" type="passenger_passenger"/>
    <trip id="passenger93" depart="930.00" from="D3D4" to="B5B1" type="passenger_passenger"/>
    <trip id="passenger94" depart="940.00" from="B4B3" to="C2D2" type="passenger_passenger"/>
    <trip id="passenger95" depart="950.00" from="C2C3" to="B5B4" type="passenger_passenger"/>
    <trip id="passenger96" depart="960.00" from="B5B1" to="D4D5" type="passenger_passenger"/>
    <trip id="passenger97" depart="970.00" from="C2D2" to="D3D4" type="passenger_passenger"/>
    <trip id="passenger98" depart="980.00" from="C4B4" to="B1C1" type="passenger_passenger"/>
    <trip id="passenger99" depart="990.00" from="D5D4" to="D3C3" type="passenger_passenger"/>
    <trip id="passenger100" depart="1000.00" from="D5D1" to="D4D5" type="passenger_passenger"/>
    <trip id="passenger101" depart="1010.00" from="D3D2" to="B3C3" type="passenger_passenger"/>
    <trip id="passenger102" depart="1020.00" from="C3C2" to="B4B5" type="passenger_passenger"/>
    <trip id="passenger103" depart="1030.00" from="C2C1" to="B1C1" type="passenger_passenger"/>
    <trip id="passenger104" depart="1040.00" from="C1D1" to="D5D4" type="passenger_passenger"/>
    <trip id="passenger105" depart="1050.00" from="B5B4" to="D2D1" type="passenger_passenger"/>
    <trip id="passenger106" depart="1060.00" from="C2D2" to="C2C3" type="passenger_passenger"/>
    <trip id="passenger107" depart="1070.00" from="D5C5" to="D5D4" type="passenger_passenger"/>
    <trip id="passenger108" depart="1080.00" from="C4B4" to="D1C1" type="passenger_passenger"/>
    <trip id="passenger109" depart="1090.00" from="B3B4" to="B5C5" type="passenger_passenger"/>
    <trip id="passenger110" depart="1100.00" from="D5D1" to="C4C3" type="passenger_passenger"/>
    <trip id="passenger111" depart="1110.00" from="C4B4" to="D1D5" type="passenger_passenger"/>
    <trip id="passenger112" depart="1120.00" from="B1C1" to="C4C5" type="passenger_passenger"/>
    <trip id="passenger113" depart="1130.00" from="C3C4" to="D3D2" type="passenger_passenger"/>
    <trip id="passenger114" depart="1140.00" from="B3B4" to="D5D1" type="passenger_passenger"/>
    <trip id="passenger115" depart="1150.00" from="B2B3" to="B4B3" type="passenger_passenger"/>
    <trip id="passenger116" depart="1160.00" from="C4C5" to="C5C4" type="passenger_passenger"/>
    <trip id="passenger117" depart="1170.00" from="B4C4" to="B2C2" type="passenger_passenger"/>
    <trip id="passenger118" depart="1180.00" from="D4C4" to="B5B1" type="passenger_passenger"/>
    <trip id="passenger119" depart="1190.00" from="C4C5" to="C4D4" type="passenger_passenger"/>
    <trip id="passenger120" depart="1200.00" from="C2C1" to="C4C5" type="passenger_passenger"/>
    <trip id="passenger121" depart="1210.00" from="C3D3" to="D4D5" type="passenger_passenger"/>
    <trip id="passenger122" depart="1220.00" from="B4B5" to="D1C1" type="passenger_passenger"/>
    <trip id="passenger123" depart="1230.00" from="B4C4" to="C2B2" type="passenger_passenger"/>
    <trip id="passenger124" depart="1240.00" from="C5C4" to="B5C5" type="passenger_passenger"/>
    <trip id="passenger125" depart="1250.00" from="C1B1" to="D1D5" type="passenger_passenger"/>
    <trip id="passenger126" depart="1260.00" from="B2B1" to="C2D2" type="passenger_passenger"/>
    <trip id="passenger127" depart="1270.00" from="D5D4" to="D5D4" type="passenger_passenger"/>
    <trip id="passenger128" depart="1280.00" from="B2B1" to="B4B5" type="passenger_passenger"/>
    <trip id="passenger129" depart="1290.00" from="B5B4" to="D4D5" type="passenger_passenger"/>
    <trip id="passenger130" depart="1300.00" from="D4C4" to="D3D4" type="passenger_passenger"/>
    <trip id="passenger131" depart="1310.00" from="C1D1" to="B3B4" type="passenger_passenger"/>
    <trip id="passenger132" depart="1320.00" from="D3C3" to="D1C1" type="passenger_passenger"/>
    <trip id="passenger133" depart="1330.00" from="C4D4" to="D5D4" type="passenger_passenger"/>
    <trip id="passenger134" depart="1340.00" from="C5C1" to="B1B2" type="passenger_passenger"/>
    <trip id="passenger135" depart="1350.00" from="D2D3" to="B5C5" type="passenger_passenger"/>
    <trip id="passenger136" depart="1360.00" from="C5C4" to="D4D5" type="passenger_passenger"/>
    <trip id="passenger137" depart="1370.00" from="B3B2" to="B2C2" type="passenger_passenger"/>
    <trip id="passenger138" depart="1380.00" from="B2C2" to="C4B4" type="passenger_passenger"/>
    <trip id="passenger139" depart="1390.00" from="B5B4" to="C4D4" type="passenger_passenger"/>
    <trip id="passenger140" depart="1400.00" from="D1C1" to="B4B5" type="passenger_passenger"/>
    <trip id="passenger141" depart="1410.00" from="C5B5" to="B5B4" type="passenger_passenger"/>
    <trip id="passenger142" depart="1420.00" from="C3C2" to="D4D3" type="passenger_passenger"/>
    <trip id="passenger143" depart="1430.00" from="D3D2" to="B2B3" type="passenger_passenger"/>
    <trip id="passenger144" depart="1440.00" from="C2C3" to="B5B4" type="passenger_passenger"/>
    <trip id="passenger145" depart="1450.00" from="B1B2" to="D2C2" type="passenger_passenger"/>
    <trip id="passenger146" depart="1460.00" from="C5B5" to="B5B4" type="passenger_passenger"/>
    <trip id="passenger147" depart="1470.00" from="D1D5" to="C4B4" type="passenger_passenger"/>
    <trip id="passenger148" depart="1480.00" from="C2C3" to="B1B2" type="passenger_passenger"/>
    <trip id="passenger149" depart="1490.00" from="B2B1" to="D4C4" type="passenger_passenger"/>
    <trip id="passenger150" depart="1500.00" from="D4D3" to="C4B4" type="passenger_passenger"/>
    <trip id="passenger151" depart="1510.00" from="D3C3" to="C4C5" type="passenger_passenger"/>
    <trip id="passenger152" depart="1520.00" from="B3B4" to="B3B2" type="passenger_passenger"/>
    <trip id="passenger153" depart="1530.00" from="C1B1" to="D4C4" type="passenger_passenger"/>
    <trip id="passenger154" depart="1540.00" from="D2D1" to="D3D4" type="passenger_passenger"/>
    <trip id="passenger155" depart="1550.00" from="D4C4" to="B4B5" type="passenger_passenger"/>
    <trip id="passenger156" depart="1560.00" from="B5B1" to="B2C2" type="passenger_passenger"/>
    <trip id="passenger157" depart="1570.00" from="D2D1" to="D4C4" type="passenger_passenger"/>
    <trip id="passenger158" depart="1580.00" from="C2C1" to="C5B5" type="passenger_passenger"/>
    <trip id="passenger159" depart="1590.00" from="B3B4" to="D4D5" type="passenger_passenger"/>
    <trip id="passenger160" depart="1600.00" from="D3D4" to="D5D1" type="passenger_passenger"/>
    <trip id="passenger161" depart="1610.00" from="D2D3" to="D4C4" type="passenger_passenger"/>
    <trip id="passenger162" depart="1620.00" from="B1B5" to="D1D2" type="passenger_passenger"/>
    <trip id="passenger163" depart="1630.00" from="C1C2" to="D4D5" type="passenger_passenger"/>
    <trip id="passenger164" depart="1640.00" from="D2D3" to="D3D4" type="passenger_passenger"/>
    <trip id="passenger165" depart="1650.00" from="D2D3" to="B5B4" type="passenger_passenger"/>
    <trip id="passenger166" depart="1660.00" from="D2D1" to="B2C2" type="passenger_passenger"/>
    <trip id="passenger167" depart="1670.00" from="D3D4" to="D3D2" type="passenger_passenger"/>
    <trip id="passenger168" depart="1680.00" from="B4C4" to="D2D3" type="passenger_passenger"/>
    <trip id="passenger169" depart="1690.00" from="C3B3" to="C1B1" type="passenger_passenger"/>
    <trip id="passenger170" depart="1700.00" from="D2D1" to="B4C4" type="passenger_passenger"/>
    <trip id="passenger171" depart="1710.00" from="B1B5" to="B4B3" type="passenger_passenger"/>
    <trip id="passenger172" depart="1720.00" from="C1C2" to="D3D4" type="passenger_passenger"/>
    <trip id="passenger173" depart="1730.00" from="D5D1" to="B5B4" type="passenger_passenger"/>
    <trip id="passenger174" depart="1740.00" from="C5C1" to="C2B2" type="passenger_passenger"/>
    <trip id="passenger175" depart="1750.00" from="D5D4" to="C3D3" type="passenger_passenger"/>
    <trip id="passenger176" depart="1760.00" from="D4D5" to="B2C2" type="passenger_passenger"/>
    <trip id="passenger177" depart="1770.00" from="D5D1" to="B3C3" type="passenger_passenger"/>
    <trip id="passenger178" depart="1780.00" from="D5D1" to="B5B4" type="passenger_passenger"/>
    <trip id="passenger179" depart="1790.00" from="B2C2" to="C2C3" type="passenger_passenger"/>
    <trip id="passenger180" depart="1800.00" from="D1D2" to="C1B1" type="passenger_passenger"/>
    <trip id="passenger181" depart="1810.00" from="C4D4" to="C3C4" type="passenger_passenger"/>
    <trip id="passenger182" depart="1820.00" from="C2B2" to="C4C3" type="passenger_passenger"/>
    <trip id="passenger183" depart="1830.00" from="B5B1" to="D1C1" type="passenger_passenger"/>
    <trip id="passenger184" depart="1840.00" from="B1B2" to="D4D5" type="passenger_passenger"/>
    <trip id="passenger185" depart="1850.00" from="C3D3" to="D1C1" type="passenger_passenger"/>
    <trip id="passenger186" depart="1860.00" from="D1D5" to="C5C4" type="passenger_passenger"/>
    <trip id="passenger187" depart="1870.00" from="C1D1" to="B2B1" type="passenger_passenger"/>
    <trip id="passenger188" depart="1880.00" from="C5C4" to="C1C2" type="passenger_passenger"/>
    <trip id="passenger189" depart="1890.00" from="C1B1" to="D3D2" type="passenger_passenger"/>
    <trip id="passenger190" depart="1900.00" from="D1C1" to="C1B1" type="passenger_passenger"/>
    <trip id="passenger191" depart="1910.00" from="C1B1" to="C2C1" type="passenger_passenger"/>
    <trip id="passenger192" depart="1920.00" from="C2C1" to="B5C5" type="passenger_passenger"/>
    <trip id="passenger193" depart="1930.00" from="B3B2" to="C2C3" type="passenger_passenger"/>
    <trip id="passenger194" depart="1940.00" from="D5C5" to="C5C4" type="passenger_passenger"/>
    <trip id="passenger195" depart="1950.00" from="D4D3" to="C4D4" type="passenger_passenger"/>
    <trip id="passenger196" depart="1960.00" from="C1B1" to="C4B4" type="passenger_passenger"/>
    <trip id="passenger197" depart="1970.00" from="B1B2" to="B5C5" type="passenger_passenger"/>
    <trip id="passenger198" depart="1980.00" from="C2C3" to="C4C3" type="passenger_passenger"/>
    <trip id="passenger199" depart="1990.00" from="C5C1" to="C3B3" type="passenger_passenger"/>
    <trip id="passenger200" depart="2000.00" from="C2D2" to="B4B5" type="passenger_passenger"/>
    <trip id="passenger201" depart="2010.00" from="C3B3" to="D4D3" type="passenger_passenger"/>
    <trip id="passenger202" depart="2020.00" from="D2D1" to="B3C3" type="passenger_passenger"/>
    <trip id="passenger203" depart="2030.00" from="B2B3" to="C3C4" type="passenger_passenger"/>
    <trip id="passenger204" depart="2040.00" from="C5B5" to="C1C2" type="passenger_passenger"/>
    <trip id="passenger205" depart="2050.00" from="D2D3" to="D1D5" type="passenger_passenger"/>
    <trip id="passenger206" depart="2060.00" from="C5C4" to="B4C4" type="passenger_passenger"/>
    <trip id="passenger207" depart="2070.00" from="B4B3" to="B1B5" type="passenger_passenger"/>
    <trip id="passenger208" depart="2080.00" from="B5B1" to="C3B3" type="passenger_passenger"/>
    <trip id="passenger209" depart="2090.00" from="D3D2" to="B2B1" type="passenger_passenger"/>
    <trip id="passenger210" depart="2100.00" from="C2C1" to="C5B5" type="passenger_passenger"/>
    <trip id="passenger211" depart="2110.00" from="B4B3" to="C5D5" type="passenger_passenger"/>
    <trip id="passenger212" depart="2120.00" from="C3C2" to="B5B1" type="passenger_passenger"/>
    <trip id="passenger213" depart="2130.00" from="C5C1" to="B1B2" type="passenger_passenger"/>
    <trip id="passenger214" depart="2140.00" from="D1D5" to="D2C2" type="passenger_passenger"/>
    <trip id="passenger215" depart="2150.00" from="B2C2" to="C2C3" type="passenger_passenger"/>
    <trip id="passenger216" depart="2160.00" from="B3C3" to="D5C5" type="passenger_passenger"/>
    <trip id="passenger217" depart="2170.00" from="C3C4" to="B1C1" type="passenger_passenger"/>
    <trip id="passenger218" depart="2180.00" from="B5B1" to="D3D2" type="passenger_passenger"/>
    <trip id="passenger219" depart="2190.00" from="C2D2" to="D2D3" type="passenger_passenger"/>
    <trip id="passenger220" depart="2200.00" from="C5C4" to="D5D4" type="passenger_passenger"/>
    <trip id="passenger221" depart="2210.00" from="C4C5" to="D5C5" type="passenger_passenger"/>
    <trip id="passenger222" depart="2220.00" from="D4C4" to="C4D4" type="passenger_passenger"/>
    <trip id="passenger223" depart="2230.00" from="D1C1" to="C3C4" type="passenger_passenger"/>
    <trip id="passenger224" depart="2240.00" from="D3C3" to="C4B4" type="passenger_passenger"/>
    <trip id="passenger225" depart="2250.00" from="D4C4" to="D1D5" type="passenger_passenger"/>
    <trip id="passenger226" depart="2260.00" from="C3B3" to="B5B1" type="passenger_passenger"/>
    <trip id="passenger227" depart="2270.00" from="B5B1" to="C5B5" type="passenger_passenger"/>
    <trip id="passenger228" depart="2280.00" from="D2C2" to="C3D3" type="passenger_passenger"/>
    <trip id="passenger229" depart="2290.00" from="C5B5" to="B5B4" type="passenger_passenger"/>
    <trip id="passenger230" depart="2300.00" from="B2B1" to="B5C5" type="passenger_passenger"/>
    <trip id="passenger231" depart="2310.00" from="B5B4" to="C1B1" type="passenger_passenger"/>
    <trip id="passenger232" depart="2320.00" from="C4B4" to="B3B2" type="passenger_passenger"/>
    <trip id="passenger233" depart="2330.00" from="B4C4" to="C5D5" type="passenger_passenger"/>
    <trip id="passenger234" depart="2340.00" from="D1C1" to="B2B1" type="passenger_passenger"/>
    <trip id="passenger235" depart="2350.00" from="C2C1" to="C4B4" type="passenger_passenger"/>
    <trip id="passenger236" depart="2360.00" from="C2C1" to="B4B5" type="passenger_passenger"/>
    <trip id="passenger237" depart="2370.00" from="C2C3" to="D4D3" type="passenger_passenger"/>
    <trip id="passenger238" depart="2380.00" from="C4C5" to="C5D5" type="passenger_passenger"/>
    <trip id="passenger239" depart="2390.00" from="D3D2" to="D2C2" type="passenger_passenger"/>
    <trip id="passenger240" depart="2400.00" from="C2B2" to="B1B2" type="passenger_passenger"/>
    <trip id="passenger241" depart="2410.00" from="C1C5" to="D1D5" type="passenger_passenger"/>
    <trip id="passenger242" depart="2420.00" from="D3D2" to="D5C5" type="passenger_passenger"/>
    <trip id="passenger243" depart="2430.00" from="C2C1" to="D1D5" type="passenger_passenger"/>
    <trip id="passenger244" depart="2440.00" from="C4B4" to="C4D4" type="passenger_passenger"/>
    <trip id="passenger245" depart="2450.00" from="B4C4" to="B4B5" type="passenger_passenger"/>
    <trip id="passenger246" depart="2460.00" from="C2C3" to="B1B5" type="passenger_passenger"/>
    <trip id="passenger247" depart="2470.00" from="C1C2" to="C5C4" type="passenger_passenger"/>
    <trip id="passenger248" depart="2480.00" from="C2C1" to="B3C3" type="passenger_passenger"/>
    <trip id="passenger249" depart="2490.00" from="C3B3" to="B3B2" type="passenger_passenger"/>
    <trip id="passenger250" depart="2500.00" from="C5B5" to="B1B5" type="passenger_passenger"/>
    <trip id="passenger251" depart="2510.00" from="C2B2" to="C4C3" type="passenger_passenger"/>
    <trip id="passenger252" depart="2520.00" from="B1B5" to="C5C1" type="passenger_passenger"/>
    <trip id="passenger253" depart="2530.00" from="B3B2" to="C3B3" type="passenger_passenger"/>
    <trip id="passenger254" depart="2540.00" from="B1C1" to="C1D1" type="passenger_passenger"/>
    <trip id="passenger255" depart="2550.00" from="B4B5" to="C1C2" type="passenger_passenger"/>
    <trip id="passenger256" depart="2560.00" from="D2C2" to="C1D1" type="passenger_passenger"/>
    <trip id="passenger257" depart="2570.00" from="D1D5" to="D3C3" type="passenger_passenger"/>
    <trip id="passenger258" depart="2580.00" from="B5B1" to="B2B3" type="passenger_passenger"/>
    <trip id="passenger259" depart="2590.00" from="B1B2" to="C3D3" type="passenger_passenger"/>
    <trip id="passenger260" depart="2600.00" from="D5D4" to="C1C5" type="passenger_passenger"/>
    <trip id="passenger261" depart="2610.00" from="C5C1" to="D2D1" type="passenger_passenger"/>
    <trip id="passenger262" depart="2620.00" from="C5C1" to="D1D5" type="passenger_passenger"/>
    <trip id="passenger263" depart="2630.00" from="D5C5" to="B4B3" type="passenger_passenger"/>
    <trip id="passenger264" depart="2640.00" from="B1B5" to="B3B4" type="passenger_passenger"/>
    <trip id="passenger265" depart="2650.00" from="B3B2" to="C5C4" type="passenger_passenger"/>
    <trip id="passenger266" depart="2660.00" from="C4C3" to="B4B5" type="passenger_passenger"/>
    <trip id="passenger267" depart="2670.00" from="C5D5" to="D2C2" type="passenger_passenger"/>
    <trip id="passenger268" depart="2680.00" from="B3C3" to="C4D4" type="passenger_passenger"/>
    <trip id="passenger269" depart="2690.00" from="D1D5" to="B2C2" type="passenger_passenger"/>
    <trip id="passenger270" depart="2700.00" from="D2D3" to="D5D1" type="passenger_passenger"/>
    <trip id="passenger271" depart="2710.00" from="B2C2" to="B1B5" type="passenger_passenger"/>
    <trip id="passenger272" depart="2720.00" from="C1B1" to="C5C4" type="passenger_passenger"/>
    <trip id="passenger273" depart="2730.00" from="D5C5" to="C2B2" type="passenger_passenger"/>
    <trip id="passenger274" depart="2740.00" from="D1C1" to="B2B1" type="passenger_passenger"/>
    <trip id="passenger275" depart="2750.00" from="C5D5" to="C5B5" type="passenger_passenger"/>
    <trip id="passenger276" depart="2760.00" from="B2C2" to="D2C2" type="passenger_passenger"/>
    <trip id="passenger277" depart="2770.00" from="D3D2" to="C4D4" type="passenger_passenger"/>
    <trip id="passenger278" depart="2780.00" from="B3B2" to="D5D4" type="passenger_passenger"/>
    <trip id="passenger279" depart="2790.00" from="D2D1" to="C1C5" type="passenger_passenger"/>
    <trip id="passenger280" depart="2800.00" from="C2C3" to="C1D1" type="passenger_passenger"/>
    <trip id="passenger281" depart="2810.00" from="C3C4" to="C1C5" type="passenger_passenger"/>
    <trip id="passenger282" depart="2820.00" from="D3D2" to="D3C3" type="passenger_passenger"/>
    <trip id="passenger283" depart="2830.00" from="B2C2" to="D5D1" type="passenger_passenger"/>
    <trip id="passenger284" depart="2840.00" from="C5B5" to="D3C3" type="passenger_passenger"/>
    <trip id="passenger285" depart="2850.00" from="D1C1" to="C2C3" type="passenger_passenger"/>
    <trip id="passenger286" depart="2860.00" from="D1D2" to="D5D1" type="passenger_passenger"/>
    <trip id="passenger287" depart="2870.00" from="B5B4" to="D2D3" type="passenger_passenger"/>
    <trip id="passenger288" depart="2880.00" from="C3D3" to="C3C2" type="passenger_passenger"/>
    <trip id="passenger289" depart="2890.00" from="C2C3" to="D1D2" type="passenger_passenger"/>
    <trip id="passenger290" depart="2900.00" from="B5B4" to="D3D2" type="passenger_passenger"/>
    <trip id="passenger291" depart="2910.00" from="D3C3" to="B2B3" type="passenger_passenger"/>
    <trip id="passenger292" depart="2920.00" from="D4C4" to="B5B1" type="passenger_passenger"/>
    <trip id="passenger293" depart="2930.00" from="C3B3" to="C4D4" type="passenger_passenger"/>
    <trip id="passenger294" depart="2940.00" from="C1D1" to="B1B5" type="passenger_passenger"/>
    <trip id="passenger295" depart="2950.00" from="D3D2" to="B4B3" type="passenger_passenger"/>
    <trip id="passenger296" depart="2960.00" from="B4B5" to="D2D1" type="passenger_passenger"/>
    <trip id="passenger297" depart="2970.00" from="C1C5" to="D4C4" type="passenger_passenger"/>
    <trip id="passenger298" depart="2980.00" from="D1C1" to="B5B4" type="passenger_passenger"/>
    <trip id="passenger299" depart="2990.00" from="B1B2" to="D5C5" type="passenger_passenger"/>
    <trip id="passenger300" depart="3000.00" from="B2B3" to="D1D2" type="passenger_passenger"/>
    <trip id="passenger301" depart="3010.00" from="C3C2" to="D1D5" type="passenger_passenger"/>
    <trip id="passenger302" depart="3020.00" from="C5D5" to="C5C1" type="passenger_passenger"/>
    <trip id="passenger303" depart="3030.00" from="C3C2" to="D2D1" type="passenger_passenger"/>
    <trip id="passenger304" depart="3040.00" from="B2B3" to="B4C4" type="passenger_passenger"/>
    <trip id="passenger305" depart="3050.00" from="C5D5" to="C1B1" type="passenger_passenger"/>
    <trip id="passenger306" depart="3060.00" from="C4C5" to="C3B3" type="passenger_passenger"/>
    <trip id="passenger307" depart="3070.00" from="C3D3" to="C2C3" type="passenger_passenger"/>
    <trip id="passenger308" depart="3080.00" from="D1D5" to="C1C2" type="passenger_passenger"/>
    <trip id="passenger309" depart="3090.00" from="D1C1" to="B5B4" type="passenger_passenger"/>