<?xml version="1.0" encoding="UTF-8"?>

<!-- generated on 2024-10-22 14:45:48 by Eclipse SUMO netgenerate Version 1.15.0
<configuration xmlns:xsi="http://www.w3.org/2001/XMLSchema-instance" xsi:noNamespaceSchemaLocation="http://sumo.dlr.de/xsd/netgenerateConfiguration.xsd">

    <spider_network>
        <spider value="true"/>
        <spider.arm-number value="5"/>
        <spider.circle-number value="3"/>
        <spider.space-radius value="250"/>
        <spider.omit-center value="true"/>
    </spider_network>

    <processing>
        <turn-lanes value="0"/>
        <turn-lanes.length value="20"/>
        <numerical-ids value="false"/>
        <offset.disable-normalization value="false"/>
        <offset.x value="0"/>
        <offset.y value="0"/>
        <flip-y-axis value="false"/>
        <roundabouts.guess value="true"/>
        <opposites.guess value="false"/>
        <opposites.guess.fix-lengths value="false"/>
        <lefthand value="false"/>
        <edges.join value="false"/>
    </processing>

    <building_defaults>
        <default.lanenumber value="1"/>
        <default.lanewidth value="5"/>
        <default.speed value="13.89"/>
        <default.priority value="-1"/>
        <default.sidewalk-width value="2"/>
        <default.crossing-width value="4"/>
        <default.junctions.keep-clear value="true"/>
        <default.junctions.radius value="4"/>
    </building_defaults>

    <tls_building>
        <tls.guess value="false"/>
        <tls.guess.joining value="false"/>
        <tls.join value="false"/>
        <tls.join-dist value="20"/>
        <tls.uncontrolled-within value="false"/>
        <tls.cycle.time value="90"/>
        <tls.yellow.min-decel value="3"/>
        <tls.yellow.patch-small value="false"/>
        <tls.yellow.time value="-1"/>
        <tls.red.time value="5"/>
        <tls.allred.time value="0"/>
        <tls.minor-left.max-speed value="19.44"/>
        <tls.left-green.time value="6"/>
        <tls.crossing-min.time value="4"/>
        <tls.crossing-clearance.time value="5"/>
        <tls.scramble.time value="5"/>
        <tls.default-type value="static"/>
        <tls.min-dur value="5"/>
        <tls.max-dur value="50"/>
    </tls_building>

    <edge_removal>
        <keep-edges.min-speed value="-1"/>
    </edge_removal>

    <unregulated_nodes>
        <keep-nodes-unregulated value="false"/>
        <keep-nodes-unregulated.district-nodes value="false"/>
    </unregulated_nodes>

    <junctions>
        <no-internal-links value="false"/>
        <no-turnarounds value="false"/>
        <no-turnarounds.tls value="false"/>
        <no-turnarounds.except-deadend value="false"/>
        <no-left-connections value="false"/>
        <junctions.join value="false"/>
        <junctions.join-dist value="10"/>
        <junctions.corner-detail value="5"/>
        <junctions.internal-link-detail value="5"/>
        <junctions.scurve-stretch value="0"/>
        <junctions.join-turns value="false"/>
        <junctions.limit-turn-speed value="5.5"/>
        <junctions.limit-turn-speed.min-angle value="15"/>
        <junctions.limit-turn-speed.min-angle.railway value="35"/>
        <junctions.limit-turn-speed.warn.straight value="5"/>
        <junctions.limit-turn-speed.warn.turn value="22"/>
        <junctions.small-radius value="1.5"/>
        <rectangular-lane-cut value="false"/>
        <check-lane-foes.roundabout value="true"/>
        <check-lane-foes.all value="false"/>
    </junctions>

    <pedestrian>
        <sidewalks.guess value="false"/>
        <sidewalks.guess.max-speed value="13.89"/>
        <sidewalks.guess.min-speed value="5.8"/>
        <sidewalks.guess.from-permissions value="false"/>
        <crossings.guess value="false"/>
        <crossings.guess.speed-threshold value="13.89"/>
        <walkingareas value="false"/>
    </pedestrian>

    <report>
        <verbose value="false"/>
        <print-options value="false"/>
        <help value=""/>
        <version value="false"/>
        <xml-validation value="never"/>
        <no-warnings value="false"/>
    </report>

    <random_number>
        <random value="false"/>
        <seed value="23423"/>
    </random_number>

</configuration>
-->

<net version="1.9" junctionCornerDetail="5" junctionLinkDetail="5" limitTurnSpeed="5.50" checkLaneFoesAll="0" checkLaneFoesRoundabout="1" xmlns:xsi="http://www.w3.org/2001/XMLSchema-instance" xsi:noNamespaceSchemaLocation="http://sumo.dlr.de/xsd/net_file.xsd">

    <location netOffset="0.00,0.00" convBoundary="-606.76,-713.29,750.00,713.29" origBoundary="-606.76,-713.29,750.00,713.29" projParameter="!"/>

    <edge id=":B1_0" function="internal">
        <lane id=":B1_0_0" index="0" speed="8.81" length="8.75" width="5.00" shape="255.45,2.50 253.43,2.77 251.55,3.56 249.79,4.90 248.18,6.76"/>
    </edge>
    <edge id=":B1_1" function="internal">
        <lane id=":B1_1_0" index="0" speed="10.76" length="13.47" width="5.00" shape="255.45,2.50 252.22,2.10 249.26,0.92 246.56,-1.06 244.13,-3.82"/>
    </edge>
    <edge id=":B1_2" function="internal">
        <lane id=":B1_2_0" index="0" speed="4.56" length="2.91" width="5.00" shape="255.45,2.50 253.58,1.25 253.29,0.67"/>
    </edge>
    <edge id=":B1_9" function="internal">
        <lane id=":B1_9_0" index="0" speed="4.56" length="4.40" width="5.00" shape="253.29,0.67 252.95,0.00 253.58,-1.25 255.45,-2.50"/>
    </edge>
    <edge id=":B1_3" function="internal">
        <lane id=":B1_3_0" index="0" speed="8.81" length="8.75" width="5.00" shape="248.18,-6.76 249.79,-4.90 251.55,-3.56 253.43,-2.77 255.45,-2.50"/>
    </edge>
    <edge id=":B1_4" function="internal">
        <lane id=":B1_4_0" index="0" speed="9.35" length="4.67" width="5.00" shape="248.18,-6.76 250.02,-3.38 250.17,-2.57"/>
    </edge>
    <edge id=":B1_5" function="internal">
        <lane id=":B1_5_0" index="0" speed="4.56" length="2.56" width="5.00" shape="248.18,-6.76 248.27,-4.51 248.13,-4.23"/>
    </edge>
    <edge id=":B1_10" function="internal">
        <lane id=":B1_10_0" index="0" speed="9.35" length="9.90" width="5.00" shape="250.17,-2.57 250.63,-0.00 250.02,3.38 248.18,6.76"/>
    </edge>
    <edge id=":B1_11" function="internal">
        <lane id=":B1_11_0" index="0" speed="4.56" length="4.74" width="5.00" shape="248.13,-4.23 247.63,-3.27 246.25,-3.04 244.13,-3.82"/>
    </edge>
    <edge id=":B1_6" function="internal">
        <lane id=":B1_6_0" index="0" speed="7.24" length="8.23" width="5.00" shape="244.13,3.82 245.17,1.91 245.52,-0.00 245.17,-1.91 244.13,-3.82"/>
    </edge>
    <edge id=":B1_7" function="internal">
        <lane id=":B1_7_0" index="0" speed="10.76" length="13.47" width="5.00" shape="244.13,3.82 246.56,1.06 249.26,-0.92 252.22,-2.10 255.45,-2.50"/>
    </edge>
    <edge id=":B1_8" function="internal">
        <lane id=":B1_8_0" index="0" speed="4.56" length="7.30" width="5.00" shape="244.13,3.82 246.25,3.04 247.63,3.27 248.27,4.51 248.18,6.76"/>
    </edge>
    <edge id=":B2_0" function="internal">
        <lane id=":B2_0_0" index="0" speed="8.81" length="8.75" width="5.00" shape="76.56,243.72 75.68,241.88 74.34,240.34 72.53,239.08 70.26,238.12"/>
    </edge>
    <edge id=":B2_1" function="internal">
        <lane id=":B2_1_0" index="0" speed="10.76" length="13.47" width="5.00" shape="76.56,243.72 75.94,240.53 76.15,237.34 77.20,234.17 79.08,231.00"/>
    </edge>
    <edge id=":B2_2" function="internal">
        <lane id=":B2_2_0" index="0" speed="4.56" length="2.91" width="5.00" shape="76.56,243.72 77.17,241.55 77.64,241.10"/>
    </edge>
    <edge id=":B2_9" function="internal">
        <lane id=":B2_9_0" index="0" speed="4.56" length="4.40" width="5.00" shape="77.64,241.10 78.17,240.57 79.55,240.78 81.32,242.18"/>
    </edge>
    <edge id=":B2_3" function="internal">
        <lane id=":B2_3_0" index="0" speed="8.81" length="8.75" width="5.00" shape="83.12,233.94 81.85,236.06 81.12,238.13 80.95,240.17 81.32,242.18"/>
    </edge>
    <edge id=":B2_4" function="internal">
        <lane id=":B2_4_0" index="0" speed="9.35" length="4.67" width="5.00" shape="83.12,233.94 80.48,236.74 79.75,237.13"/>
    </edge>
    <edge id=":B2_5" function="internal">
        <lane id=":B2_5_0" index="0" speed="4.56" length="2.56" width="5.00" shape="83.12,233.94 81.01,234.73 80.70,234.67"/>
    </edge>
    <edge id=":B2_10" function="internal">
        <lane id=":B2_10_0" index="0" speed="9.35" length="9.90" width="5.00" shape="79.75,237.13 77.45,238.37 74.05,238.83 70.26,238.12"/>
    </edge>
    <edge id=":B2_11" function="internal">
        <lane id=":B2_11_0" index="0" speed="4.56" length="4.74" width="5.00" shape="80.70,234.67 79.63,234.50 78.98,233.26 79.08,231.00"/>
    </edge>
    <edge id=":B2_6" function="internal">
        <lane id=":B2_6_0" index="0" speed="7.24" length="8.23" width="5.00" shape="71.81,233.37 73.95,233.77 75.87,233.51 77.58,232.58 79.08,231.00"/>
    </edge>
    <edge id=":B2_7" function="internal">
        <lane id=":B2_7_0" index="0" speed="10.76" length="13.47" width="5.00" shape="71.81,233.37 75.19,234.82 77.90,236.78 79.94,239.23 81.32,242.18"/>
    </edge>
    <edge id=":B2_8" function="internal">
        <lane id=":B2_8_0" index="0" speed="4.56" length="7.30" width="5.00" shape="71.81,233.37 73.20,235.13 73.41,236.52 72.43,237.51 70.26,238.12"/>
    </edge>
    <edge id=":B3_0" function="internal">
        <lane id=":B3_0_0" index="0" speed="8.81" length="8.75" width="5.00" shape="-196.81,151.34 -199.21,150.79 -201.41,150.74 -203.40,151.20 -205.20,152.17"/>
    </edge>
    <edge id=":B3_1" function="internal">
        <lane id=":B3_1_0" index="0" speed="9.35" length="4.67" width="5.00" shape="-196.81,151.34 -200.28,149.69 -200.88,149.12"/>
    </edge>
    <edge id=":B3_2" function="internal">
        <lane id=":B3_2_0" index="0" speed="4.56" length="2.56" width="5.00" shape="-196.81,151.34 -198.20,149.58 -198.25,149.27"/>
    </edge>
    <edge id=":B3_9" function="internal">
        <lane id=":B3_9_0" index="0" speed="9.35" length="9.90" width="5.00" shape="-200.88,149.12 -202.77,147.32 -204.26,144.22 -204.75,140.41"/>
    </edge>
    <edge id=":B3_10" function="internal">
        <lane id=":B3_10_0" index="0" speed="4.56" length="4.74" width="5.00" shape="-198.25,149.27 -198.41,148.19 -197.43,147.20 -195.26,146.59"/>
    </edge>
    <edge id=":B3_3" function="internal">
        <lane id=":B3_3_0" index="0" speed="7.24" length="8.23" width="5.00" shape="-199.75,140.41 -199.47,142.56 -198.63,144.31 -197.23,145.66 -195.26,146.59"/>
    </edge>
    <edge id=":B3_4" function="internal">
        <lane id=":B3_4_0" index="0" speed="10.76" length="13.47" width="5.00" shape="-199.75,140.41 -200.09,144.07 -201.11,147.26 -202.82,149.96 -205.20,152.17"/>
    </edge>
    <edge id=":B3_5" function="internal">
        <lane id=":B3_5_0" index="0" speed="4.56" length="7.30" width="5.00" shape="-199.75,140.41 -201.00,142.28 -202.25,142.91 -203.50,142.28 -204.75,140.41"/>
    </edge>
    <edge id=":B3_6" function="internal">
        <lane id=":B3_6_0" index="0" speed="8.81" length="8.75" width="5.00" shape="-208.14,148.13 -206.66,146.73 -205.60,144.97 -204.97,142.86 -204.75,140.41"/>
    </edge>
    <edge id=":B3_7" function="internal">
        <lane id=":B3_7_0" index="0" speed="10.76" length="13.47" width="5.00" shape="-208.14,148.13 -205.29,146.55 -202.20,145.77 -198.85,145.78 -195.26,146.59"/>
    </edge>
    <edge id=":B3_8" function="internal">
        <lane id=":B3_8_0" index="0" speed="4.56" length="2.91" width="5.00" shape="-208.14,148.13 -205.88,148.04 -205.30,148.34"/>
    </edge>
    <edge id=":B3_11" function="internal">
        <lane id=":B3_11_0" index="0" speed="4.56" length="4.40" width="5.00" shape="-205.30,148.34 -204.64,148.68 -204.41,150.06 -205.20,152.17"/>
    </edge>
    <edge id=":B4_0" function="internal">
        <lane id=":B4_0_0" index="0" speed="8.81" length="8.75" width="5.00" shape="-204.75,-140.41 -204.97,-142.86 -205.60,-144.97 -206.66,-146.73 -208.14,-148.13"/>
    </edge>
    <edge id=":B4_1" function="internal">
        <lane id=":B4_1_0" index="0" speed="9.35" length="4.67" width="5.00" shape="-204.75,-140.41 -204.26,-144.22 -203.90,-144.96"/>
    </edge>
    <edge id=":B4_2" function="internal">
        <lane id=":B4_2_0" index="0" speed="4.56" length="2.56" width="5.00" shape="-204.75,-140.41 -203.50,-142.28 -203.23,-142.42"/>
    </edge>
    <edge id=":B4_9" function="internal">
        <lane id=":B4_9_0" index="0" speed="9.35" length="9.90" width="5.00" shape="-203.90,-144.96 -202.77,-147.32 -200.28,-149.69 -196.81,-151.34"/>
    </edge>
    <edge id=":B4_10" function="internal">
        <lane id=":B4_10_0" index="0" speed="4.56" length="4.74" width="5.00" shape="-203.23,-142.42 -202.25,-142.91 -201.00,-142.28 -199.75,-140.41"/>
    </edge>
    <edge id=":B4_3" function="internal">
        <lane id=":B4_3_0" index="0" speed="7.24" length="8.23" width="5.00" shape="-195.26,-146.59 -197.23,-145.66 -198.63,-144.31 -199.47,-142.56 -199.75,-140.41"/>
    </edge>
    <edge id=":B4_4" function="internal">
        <lane id=":B4_4_0" index="0" speed="10.76" length="13.47" width="5.00" shape="-195.26,-146.59 -198.85,-145.78 -202.20,-145.77 -205.29,-146.55 -208.14,-148.13"/>
    </edge>
    <edge id=":B4_5" function="internal">
        <lane id=":B4_5_0" index="0" speed="4.56" length="7.30" width="5.00" shape="-195.26,-146.59 -197.43,-147.20 -198.41,-148.19 -198.20,-149.58 -196.81,-151.34"/>
    </edge>
    <edge id=":B4_6" function="internal">
        <lane id=":B4_6_0" index="0" speed="8.81" length="8.75" width="5.00" shape="-205.20,-152.17 -203.40,-151.20 -201.41,-150.74 -199.21,-150.79 -196.81,-151.34"/>
    </edge>
    <edge id=":B4_7" function="internal">
        <lane id=":B4_7_0" index="0" speed="10.76" length="13.47" width="5.00" shape="-205.20,-152.17 -202.82,-149.96 -201.11,-147.26 -200.09,-144.07 -199.75,-140.41"/>
    </edge>
    <edge id=":B4_8" function="internal">
        <lane id=":B4_8_0" index="0" speed="4.56" length="2.91" width="5.00" shape="-205.20,-152.17 -204.41,-150.06 -204.52,-149.42"/>
    </edge>
    <edge id=":B4_11" function="internal">
        <lane id=":B4_11_0" index="0" speed="4.56" length="4.40" width="5.00" shape="-204.52,-149.42 -204.64,-148.68 -205.88,-148.04 -208.14,-148.13"/>
    </edge>
    <edge id=":B5_0" function="internal">
        <lane id=":B5_0_0" index="0" speed="7.24" length="8.23" width="5.00" shape="79.08,-231.00 77.58,-232.58 75.87,-233.51 73.95,-233.77 71.81,-233.37"/>
    </edge>
    <edge id=":B5_1" function="internal">
        <lane id=":B5_1_0" index="0" speed="10.76" length="13.47" width="5.00" shape="79.08,-231.00 77.20,-234.17 76.15,-237.34 75.94,-240.53 76.56,-243.72"/>
    </edge>
    <edge id=":B5_2" function="internal">
        <lane id=":B5_2_0" index="0" speed="4.56" length="2.85" width="5.00" shape="79.08,-231.00 78.98,-233.26 79.26,-233.79"/>
    </edge>
    <edge id=":B5_9" function="internal">
        <lane id=":B5_9_0" index="0" speed="4.56" length="4.45" width="5.00" shape="79.26,-233.79 79.63,-234.50 81.01,-234.73 83.12,-233.94"/>
    </edge>
    <edge id=":B5_3" function="internal">
        <lane id=":B5_3_0" index="0" speed="8.81" length="8.75" width="5.00" shape="81.32,-242.18 80.95,-240.17 81.12,-238.13 81.85,-236.06 83.12,-233.94"/>
    </edge>
    <edge id=":B5_4" function="internal">
        <lane id=":B5_4_0" index="0" speed="10.76" length="4.12" width="5.00" shape="81.32,-242.18 79.94,-239.23 79.39,-238.56"/>
    </edge>
    <edge id=":B5_5" function="internal">
        <lane id=":B5_5_0" index="0" speed="4.56" length="2.51" width="5.00" shape="81.32,-242.18 79.55,-240.78 79.29,-240.74"/>
    </edge>
    <edge id=":B5_10" function="internal">
        <lane id=":B5_10_0" index="0" speed="10.76" length="9.35" width="5.00" shape="79.39,-238.56 77.90,-236.78 75.19,-234.82 71.81,-233.37"/>
    </edge>
    <edge id=":B5_11" function="internal">
        <lane id=":B5_11_0" index="0" speed="4.56" length="4.79" width="5.00" shape="79.29,-240.74 78.17,-240.57 77.17,-241.55 76.56,-243.72"/>
    </edge>
    <edge id=":B5_6" function="internal">
        <lane id=":B5_6_0" index="0" speed="8.81" length="8.75" width="5.00" shape="70.26,-238.12 72.53,-239.08 74.34,-240.34 75.68,-241.88 76.56,-243.72"/>
    </edge>
    <edge id=":B5_7" function="internal">
        <lane id=":B5_7_0" index="0" speed="9.35" length="14.57" width="5.00" shape="70.26,-238.12 74.05,-238.83 77.45,-238.37 80.48,-236.74 83.12,-233.94"/>
    </edge>
    <edge id=":B5_8" function="internal">
        <lane id=":B5_8_0" index="0" speed="4.56" length="7.30" width="5.00" shape="70.26,-238.12 72.43,-237.51 73.41,-236.52 73.20,-235.13 71.81,-233.37"/>
    </edge>
    <edge id=":C1_0" function="internal">
        <lane id=":C1_0_0" index="0" speed="11.90" length="16.67" width="5.00" shape="506.55,2.50 503.78,3.13 500.75,5.04 497.46,8.21 493.90,12.64"/>
    </edge>
    <edge id=":C1_1" function="internal">
        <lane id=":C1_1_0" index="0" speed="13.89" length="20.36" width="5.00" shape="506.55,2.50 486.19,2.50"/>
    </edge>
    <edge id=":C1_2" function="internal">
        <lane id=":C1_2_0" index="0" speed="13.30" length="5.71" width="5.00" shape="506.55,2.50 502.86,1.38 501.29,0.39"/>
    </edge>
    <edge id=":C1_3" function="internal">
        <lane id=":C1_3_0" index="0" speed="4.56" length="2.72" width="5.00" shape="506.55,2.50 504.67,1.25 504.46,0.83"/>
    </edge>
    <edge id=":C1_16" function="internal">
        <lane id=":C1_16_0" index="0" speed="13.30" length="15.34" width="5.00" shape="501.29,0.39 498.26,-1.51 493.63,-5.45 489.86,-9.71"/>
    </edge>
    <edge id=":C1_17" function="internal">
        <lane id=":C1_17_0" index="0" speed="4.56" length="4.58" width="5.00" shape="504.46,0.83 504.05,0.00 504.67,-1.25 506.55,-2.50"/>
    </edge>
    <edge id=":C1_4" function="internal">
        <lane id=":C1_4_0" index="0" speed="11.90" length="16.67" width="5.00" shape="493.90,-12.64 497.46,-8.21 500.75,-5.04 503.78,-3.13 506.55,-2.50"/>
    </edge>
    <edge id=":C1_5" function="internal">
        <lane id=":C1_5_0" index="0" speed="12.55" length="27.25" width="5.00" shape="493.90,-12.64 497.35,-6.32 498.50,0.00 497.35,6.32 493.90,12.64"/>
    </edge>
    <edge id=":C1_6" function="internal">
        <lane id=":C1_6_0" index="0" speed="7.84" length="19.24" width="5.00" shape="493.90,-12.64 494.90,-8.34 493.42,-3.35 490.25,0.78 486.19,2.50"/>
    </edge>
    <edge id=":C1_7" function="internal">
        <lane id=":C1_7_0" index="0" speed="4.56" length="7.30" width="5.00" shape="493.90,-12.64 493.99,-10.39 493.35,-9.15 491.97,-8.92 489.86,-9.71"/>
    </edge>
    <edge id=":C1_8" function="internal">
        <lane id=":C1_8_0" index="0" speed="6.33" length="11.70" width="5.00" shape="486.19,-2.50 489.76,-2.95 491.56,-4.30 491.59,-6.55 489.86,-9.71"/>
    </edge>
    <edge id=":C1_9" function="internal">
        <lane id=":C1_9_0" index="0" speed="13.89" length="20.36" width="5.00" shape="486.19,-2.50 506.55,-2.50"/>
    </edge>
    <edge id=":C1_10" function="internal">
        <lane id=":C1_10_0" index="0" speed="7.84" length="5.39" width="5.00" shape="486.19,-2.50 490.25,-0.78 490.85,-0.00"/>
    </edge>
    <edge id=":C1_11" function="internal">
        <lane id=":C1_11_0" index="0" speed="4.56" length="2.72" width="5.00" shape="486.19,-2.50 488.06,-1.25 488.27,-0.83"/>
    </edge>
    <edge id=":C1_18" function="internal">
        <lane id=":C1_18_0" index="0" speed="7.84" length="13.85" width="5.00" shape="490.85,-0.00 493.42,3.35 494.90,8.34 493.90,12.64"/>
    </edge>
    <edge id=":C1_19" function="internal">
        <lane id=":C1_19_0" index="0" speed="4.56" length="4.58" width="5.00" shape="488.27,-0.83 488.69,0.00 488.06,1.25 486.19,2.50"/>
    </edge>
    <edge id=":C1_12" function="internal">
        <lane id=":C1_12_0" index="0" speed="6.33" length="11.70" width="5.00" shape="489.86,9.71 491.59,6.55 491.56,4.30 489.76,2.95 486.19,2.50"/>
    </edge>
    <edge id=":C1_13" function="internal">
        <lane id=":C1_13_0" index="0" speed="11.07" length="20.92" width="5.00" shape="489.86,9.71 492.50,4.85 493.38,0.00 492.50,-4.85 489.86,-9.71"/>
    </edge>
    <edge id=":C1_14" function="internal">
        <lane id=":C1_14_0" index="0" speed="13.30" length="21.05" width="5.00" shape="489.86,9.71 493.63,5.45 498.26,1.51 502.86,-1.38 506.55,-2.50"/>
    </edge>
    <edge id=":C1_15" function="internal">
        <lane id=":C1_15_0" index="0" speed="4.56" length="7.30" width="5.00" shape="489.86,9.71 491.97,8.92 493.35,9.15 493.99,10.39 493.90,12.64"/>
    </edge>
    <edge id=":C2_0" function="internal">
        <lane id=":C2_0_0" index="0" speed="11.90" length="16.67" width="5.00" shape="154.15,482.53 152.70,480.09 149.95,477.80 145.92,475.65 140.60,473.64"/>
    </edge>
    <edge id=":C2_1" function="internal">
        <lane id=":C2_1_0" index="0" speed="13.89" length="20.36" width="5.00" shape="154.15,482.53 147.86,463.16"/>
    </edge>
    <edge id=":C2_2" function="internal">
        <lane id=":C2_2_0" index="0" speed="13.30" length="5.71" width="5.00" shape="154.15,482.53 154.08,478.67 154.54,476.87"/>
    </edge>
    <edge id=":C2_3" function="internal">
        <lane id=":C2_3_0" index="0" speed="4.56" length="2.72" width="5.00" shape="154.15,482.53 154.76,480.36 155.10,480.03"/>
    </edge>
    <edge id=":C2_16" function="internal">
        <lane id=":C2_16_0" index="0" speed="13.30" length="15.34" width="5.00" shape="154.54,476.87 155.41,473.40 157.72,467.78 160.61,462.88"/>
    </edge>
    <edge id=":C2_17" function="internal">
        <lane id=":C2_17_0" index="0" speed="4.56" length="4.58" width="5.00" shape="155.10,480.03 155.76,479.38 157.14,479.59 158.91,480.98"/>
    </edge>
    <edge id=":C2_4" function="internal">
        <lane id=":C2_4_0" index="0" speed="11.90" length="16.67" width="5.00" shape="164.65,465.82 161.53,470.57 159.53,474.68 158.66,478.15 158.91,480.98"/>
    </edge>
    <edge id=":C2_5" function="internal">
        <lane id=":C2_5_0" index="0" speed="12.55" length="27.25" width="5.00" shape="164.65,465.82 159.70,471.05 154.04,474.10 147.68,474.96 140.60,473.64"/>
    </edge>
    <edge id=":C2_6" function="internal">
        <lane id=":C2_6_0" index="0" speed="7.84" length="19.24" width="5.00" shape="164.65,465.82 160.87,468.10 155.66,468.23 150.76,466.50 147.86,463.16"/>
    </edge>
    <edge id=":C2_7" function="internal">
        <lane id=":C2_7_0" index="0" speed="4.56" length="7.30" width="5.00" shape="164.65,465.82 162.54,466.60 161.16,466.38 160.51,465.14 160.61,462.88"/>
    </edge>
    <edge id=":C2_8" function="internal">
        <lane id=":C2_8_0" index="0" speed="6.33" length="11.70" width="5.00" shape="152.62,461.62 154.15,464.87 155.99,466.17 158.14,465.51 160.61,462.88"/>
    </edge>
    <edge id=":C2_9" function="internal">
        <lane id=":C2_9_0" index="0" speed="13.89" length="20.36" width="5.00" shape="152.62,461.62 158.91,480.98"/>
    </edge>
    <edge id=":C2_10" function="internal">
        <lane id=":C2_10_0" index="0" speed="7.84" length="5.39" width="5.00" shape="152.62,461.62 152.24,466.02 151.68,466.82"/>
    </edge>
    <edge id=":C2_11" function="internal">
        <lane id=":C2_11_0" index="0" speed="4.56" length="2.72" width="5.00" shape="152.62,461.62 152.01,463.79 151.67,464.12"/>
    </edge>
    <edge id=":C2_18" function="internal">
        <lane id=":C2_18_0" index="0" speed="7.84" length="13.85" width="5.00" shape="151.68,466.82 149.29,470.31 145.00,473.26 140.60,473.64"/>
    </edge>
    <edge id=":C2_19" function="internal">
        <lane id=":C2_19_0" index="0" speed="4.56" length="4.58" width="5.00" shape="151.67,464.12 151.01,464.77 149.63,464.56 147.86,463.16"/>
    </edge>
    <edge id=":C2_12" function="internal">
        <lane id=":C2_12_0" index="0" speed="6.33" length="11.70" width="5.00" shape="142.14,468.88 145.68,469.56 147.81,468.83 148.54,466.70 147.86,463.16"/>
    </edge>
    <edge id=":C2_13" function="internal">
        <lane id=":C2_13_0" index="0" speed="11.07" length="20.92" width="5.00" shape="142.14,468.88 147.58,469.90 152.46,469.24 156.81,466.90 160.61,462.88"/>
    </edge>
    <edge id=":C2_14" function="internal">
        <lane id=":C2_14_0" index="0" speed="13.30" length="21.05" width="5.00" shape="142.14,468.88 147.36,471.15 152.53,474.34 156.70,477.82 158.91,480.98"/>
    </edge>
    <edge id=":C2_15" function="internal">
        <lane id=":C2_15_0" index="0" speed="4.56" length="7.30" width="5.00" shape="142.14,468.88 143.54,470.65 143.75,472.03 142.77,473.03 140.60,473.64"/>
    </edge>
    <edge id=":C3_0" function="internal">
        <lane id=":C3_0_0" index="0" speed="11.90" length="16.67" width="5.00" shape="-392.14,300.54 -397.63,299.04 -402.15,298.41 -405.72,298.65 -408.34,299.76"/>
    </edge>
    <edge id=":C3_1" function="internal">
        <lane id=":C3_1_0" index="0" speed="12.55" length="27.25" width="5.00" shape="-392.14,300.54 -398.65,297.45 -403.29,293.01 -406.08,287.22 -407.01,280.08"/>
    </edge>
    <edge id=":C3_2" function="internal">
        <lane id=":C3_2_0" index="0" speed="7.84" length="19.24" width="5.00" shape="-392.14,300.54 -395.48,297.65 -397.21,292.74 -397.08,287.53 -394.80,283.75"/>
    </edge>
    <edge id=":C3_3" function="internal">
        <lane id=":C3_3_0" index="0" speed="4.56" length="7.30" width="5.00" shape="-392.14,300.54 -393.54,298.77 -393.75,297.39 -392.77,296.39 -390.60,295.78"/>
    </edge>
    <edge id=":C3_4" function="internal">
        <lane id=":C3_4_0" index="0" speed="6.33" length="11.70" width="5.00" shape="-391.86,287.80 -394.49,290.26 -395.15,292.41 -393.85,294.25 -390.60,295.78"/>
    </edge>
    <edge id=":C3_5" function="internal">
        <lane id=":C3_5_0" index="0" speed="13.89" length="20.36" width="5.00" shape="-391.86,287.80 -408.34,299.76"/>
    </edge>
    <edge id=":C3_6" function="internal">
        <lane id=":C3_6_0" index="0" speed="7.84" length="5.39" width="5.00" shape="-391.86,287.80 -396.16,288.79 -397.10,288.51"/>
    </edge>
    <edge id=":C3_7" function="internal">
        <lane id=":C3_7_0" index="0" speed="4.56" length="2.72" width="5.00" shape="-391.86,287.80 -394.12,287.89 -394.53,287.67"/>
    </edge>
    <edge id=":C3_16" function="internal">
        <lane id=":C3_16_0" index="0" speed="7.84" length="13.85" width="5.00" shape="-397.10,288.51 -401.16,287.31 -405.29,284.14 -407.01,280.08"/>
    </edge>
    <edge id=":C3_17" function="internal">
        <lane id=":C3_17_0" index="0" speed="4.56" length="4.58" width="5.00" shape="-394.53,287.67 -395.36,287.24 -395.59,285.86 -394.80,283.75"/>
    </edge>
    <edge id=":C3_8" function="internal">
        <lane id=":C3_8_0" index="0" speed="6.33" length="11.70" width="5.00" shape="-402.01,280.08 -401.56,283.65 -400.21,285.45 -397.96,285.48 -394.80,283.75"/>
    </edge>
    <edge id=":C3_9" function="internal">
        <lane id=":C3_9_0" index="0" speed="11.07" length="20.92" width="5.00" shape="-402.01,280.08 -401.30,285.56 -399.16,290.00 -395.59,293.41 -390.60,295.78"/>
    </edge>
    <edge id=":C3_10" function="internal">
        <lane id=":C3_10_0" index="0" speed="13.30" length="21.05" width="5.00" shape="-402.01,280.08 -402.55,285.74 -403.99,291.64 -406.01,296.69 -408.34,299.76"/>
    </edge>
    <edge id=":C3_11" function="internal">
        <lane id=":C3_11_0" index="0" speed="4.56" length="7.30" width="5.00" shape="-402.01,280.08 -403.26,281.95 -404.51,282.58 -405.76,281.95 -407.01,280.08"/>
    </edge>
    <edge id=":C3_12" function="internal">
        <lane id=":C3_12_0" index="0" speed="11.90" length="16.67" width="5.00" shape="-411.28,295.72 -409.41,293.58 -408.08,290.26 -407.28,285.76 -407.01,280.08"/>
    </edge>
    <edge id=":C3_13" function="internal">
        <lane id=":C3_13_0" index="0" speed="13.89" length="20.36" width="5.00" shape="-411.28,295.72 -394.80,283.75"/>
    </edge>
    <edge id=":C3_14" function="internal">
        <lane id=":C3_14_0" index="0" speed="13.30" length="5.71" width="5.00" shape="-411.28,295.72 -407.63,294.46 -405.78,294.33"/>
    </edge>
    <edge id=":C3_15" function="internal">
        <lane id=":C3_15_0" index="0" speed="4.56" length="2.72" width="5.00" shape="-411.28,295.72 -409.02,295.63 -408.61,295.84"/>
    </edge>
    <edge id=":C3_18" function="internal">
        <lane id=":C3_18_0" index="0" speed="13.30" length="15.34" width="5.00" shape="-405.78,294.33 -402.21,294.09 -396.15,294.55 -390.60,295.78"/>
    </edge>
    <edge id=":C3_19" function="internal">
        <lane id=":C3_19_0" index="0" speed="4.56" length="4.58" width="5.00" shape="-408.61,295.84 -407.78,296.27 -407.55,297.65 -408.34,299.76"/>
    </edge>
    <edge id=":C4_0" function="internal">
        <lane id=":C4_0_0" index="0" speed="11.90" length="16.67" width="5.00" shape="-407.01,-280.08 -407.28,-285.76 -408.08,-290.26 -409.41,-293.58 -411.28,-295.72"/>
    </edge>
    <edge id=":C4_1" function="internal">
        <lane id=":C4_1_0" index="0" speed="12.55" length="27.25" width="5.00" shape="-407.01,-280.08 -406.08,-287.22 -403.29,-293.01 -398.65,-297.45 -392.14,-300.54"/>
    </edge>
    <edge id=":C4_2" function="internal">
        <lane id=":C4_2_0" index="0" speed="7.84" length="19.24" width="5.00" shape="-407.01,-280.08 -405.29,-284.14 -401.16,-287.31 -396.16,-288.79 -391.86,-287.80"/>
    </edge>
    <edge id=":C4_3" function="internal">
        <lane id=":C4_3_0" index="0" speed="4.56" length="7.30" width="5.00" shape="-407.01,-280.08 -405.76,-281.95 -404.51,-282.58 -403.26,-281.95 -402.01,-280.08"/>
    </edge>
    <edge id=":C4_4" function="internal">
        <lane id=":C4_4_0" index="0" speed="6.33" length="11.70" width="5.00" shape="-394.80,-283.75 -397.96,-285.48 -400.21,-285.45 -401.56,-283.65 -402.01,-280.08"/>
    </edge>
    <edge id=":C4_5" function="internal">
        <lane id=":C4_5_0" index="0" speed="13.89" length="20.36" width="5.00" shape="-394.80,-283.75 -411.28,-295.72"/>